@<TRIPOS>MOLECULE
ZINC000585661851
101   105   1     0     0
SMALL
USER_CHARGES
@<TRIPOS>ATOM
1      C1      0.5420    2.1864   -0.5058 C.3      1 ZINC000585661851   -0.1600
2      C2      0.5159    0.6859   -0.8033 C.3      1 ZINC000585661851   -0.1200
3      C3      0.6873   -0.0957    0.5008 C.3      1 ZINC000585661851   -0.0800
4      H4      1.6681    0.1174    0.9259 H        1 ZINC000585661851    0.0700
5      C5      0.5693   -1.5944    0.2165 C.3      1 ZINC000585661851   -0.1200
6      C6      0.9199   -2.3824    1.4802 C.3      1 ZINC000585661851   -0.1200
7      C7      0.9452   -3.8779    1.1582 C.3      1 ZINC000585661851   -0.0800
8      H8     -0.0063   -4.1700    0.7138 H        1 ZINC000585661851    0.0800
9      C9      2.0789   -4.1682    0.1726 C.3      1 ZINC000585661851   -0.1600
10     C10     1.1718   -4.6711    2.4423 C.3      1 ZINC000585661851   -0.0800
11     H11     2.1024   -4.3977    2.9220 H        1 ZINC000585661851    0.0700
12     C12    -0.0290   -4.4968    3.4104 C.3      1 ZINC000585661851   -0.1200
13     C13    -0.4045   -5.9248    3.9062 C.3      1 ZINC000585661851   -0.1200
14     C14     0.8450   -6.7318    3.5358 C.3      1 ZINC000585661851   -0.0700
15     H15     1.6581   -6.3783    4.2228 H        1 ZINC000585661851    0.0600
16     C16     0.8070   -8.2250    3.6329 C.3      1 ZINC000585661851   -0.0600
17     H17     0.7589   -8.5000    4.7117 H        1 ZINC000585661851    0.0600
18     C18    -0.3711   -8.8876    2.9372 C.3      1 ZINC000585661851   -0.0800
19     C19    -0.2455  -10.3838    3.0622 C.2      1 ZINC000585661851   -0.1600
20     C20     0.9018  -10.9854    3.1608 C.2      1 ZINC000585661851   -0.0900
21     C21     0.9077  -12.5056    3.1877 C.3      1 ZINC000585661851   -0.1100
22     C22     1.8329  -12.9938    2.0686 C.3      1 ZINC000585661851    0.1000
23     H23     1.9085  -14.0813    2.1112 H        1 ZINC000585661851    0.0700
24     O24     1.2949  -12.6071    0.8025 O.3      1 ZINC000585661851   -0.3500
25     C25     0.4113  -13.5718    0.2274 C.3      1 ZINC000585661851    0.2300
26     H26    -0.3843  -13.8037    0.9354 H        1 ZINC000585661851    0.0600
27     O27     1.1396  -14.7628   -0.0781 O.3      1 ZINC000585661851   -0.3800
28     C28     0.3412  -15.8077   -0.6372 C.3      1 ZINC000585661851    0.1100
29     H29    -0.4554  -16.0690    0.0594 H        1 ZINC000585661851    0.0800
30     C30     1.2163  -17.0359   -0.8955 C.3      1 ZINC000585661851    0.0900
31     O31     1.6944  -17.5503    0.3490 O.3      1 ZINC000585661851   -0.5700
32     C32    -0.2707  -15.3300   -1.9567 C.3      1 ZINC000585661851    0.0900
33     H33     0.5249  -15.1071   -2.6676 H        1 ZINC000585661851    0.0800
34     O34    -1.1146  -16.3527   -2.4897 O.3      1 ZINC000585661851   -0.5500
35     C35    -1.0964  -14.0657   -1.6994 C.3      1 ZINC000585661851    0.0800
36     H36    -1.9218  -14.2998   -1.0272 H        1 ZINC000585661851    0.0800
37     O37    -1.6130  -13.5721   -2.9370 O.3      1 ZINC000585661851   -0.5600
38     C38    -0.1981  -13.0041   -1.0572 C.3      1 ZINC000585661851    0.0600
39     H39     0.5991  -12.7341   -1.7499 H        1 ZINC000585661851    0.0800
40     O40    -0.9746  -11.8452   -0.7477 O.3      1 ZINC000585661851   -0.5500
41     C41     3.2214  -12.3804    2.2453 C.3      1 ZINC000585661851   -0.1200
42     C42     3.1541  -10.8584    2.1454 C.3      1 ZINC000585661851   -0.1000
43     C43     2.2244  -10.2801    3.2143 C.3      1 ZINC000585661851   -0.0100
44     C44     2.8517  -10.5655    4.5875 C.3      1 ZINC000585661851   -0.1400
45     C45     2.1259   -8.7763    3.0784 C.3      1 ZINC000585661851   -0.0700
46     H46     2.9303   -8.3504    3.7013 H        1 ZINC000585661851    0.0600
47     C47     2.3768   -8.2926    1.6573 C.3      1 ZINC000585661851   -0.1100
48     C48     2.4614   -6.7562    1.6220 C.3      1 ZINC000585661851   -0.1100
49     C49     1.1621   -6.1836    2.1323 C.3      1 ZINC000585661851   -0.0500
50     C50     0.0443   -6.4072    1.1161 C.3      1 ZINC000585661851   -0.1500
51     C51    -0.4001    0.3224    1.4926 C.3      1 ZINC000585661851   -0.1000
52     C52    -1.6544   -0.5224    1.2603 C.3      1 ZINC000585661851   -0.1500
53     C53     0.1026    0.1067    2.9215 C.3      1 ZINC000585661851   -0.1600
54     H54     1.4541    2.4333    0.0377 H        1 ZINC000585661851    0.0500
55     H55     0.5154    2.7431   -1.4425 H        1 ZINC000585661851    0.0500
56     H56    -0.3247    2.4520    0.0995 H        1 ZINC000585661851    0.0600
57     H57    -0.4373    0.4229   -1.2619 H        1 ZINC000585661851    0.0600
58     H58     1.3285    0.4366   -1.4857 H        1 ZINC000585661851    0.0600
59     H59    -0.4517   -1.8276   -0.0855 H        1 ZINC000585661851    0.0700
60     H60     1.2565   -1.8675   -0.5843 H        1 ZINC000585661851    0.0600
61     H61     1.9002   -2.0720    1.8417 H        1 ZINC000585661851    0.0600
62     H62     0.1713   -2.1888    2.2485 H        1 ZINC000585661851    0.0800
63     H63     3.0381   -4.0413    0.6745 H        1 ZINC000585661851    0.0500
64     H64     1.9914   -5.1923   -0.1904 H        1 ZINC000585661851    0.0600
65     H65     2.0148   -3.4779   -0.6685 H        1 ZINC000585661851    0.0500
66     H66     0.2636   -3.8767    4.2570 H        1 ZINC000585661851    0.0600
67     H67    -0.8712   -4.0491    2.8868 H        1 ZINC000585661851    0.0600
68     H68    -0.5478   -5.9202    4.9893 H        1 ZINC000585661851    0.0600
69     H69    -1.2932   -6.2960    3.4086 H        1 ZINC000585661851    0.0700
70     H70    -1.3078   -8.5720    3.4001 H        1 ZINC000585661851    0.0600
71     H71    -0.3952   -8.6650    1.8741 H        1 ZINC000585661851    0.0800
72     H72    -1.1476  -10.9738    3.0679 H        1 ZINC000585661851    0.1000
73     H73     1.2639  -12.8654    4.1495 H        1 ZINC000585661851    0.0800
74     H74    -0.1036  -12.8756    3.0097 H        1 ZINC000585661851    0.0700
75     H75     0.6284  -17.8007   -1.4030 H        1 ZINC000585661851    0.0800
76     H76     2.0630  -16.7537   -1.5213 H        1 ZINC000585661851    0.0600
77     H77     2.2574  -18.3316    0.2614 H        1 ZINC000585661851    0.3800
78     H78    -1.5366  -16.1175   -3.3274 H        1 ZINC000585661851    0.3900
79     H79    -2.1471  -12.7708   -2.8486 H        1 ZINC000585661851    0.3900
80     H80    -0.4685  -11.1307   -0.3374 H        1 ZINC000585661851    0.3900
81     H81     3.6402  -12.6852    3.2016 H        1 ZINC000585661851    0.0800
82     H82     3.8760  -12.7575    1.4506 H        1 ZINC000585661851    0.0700
83     H83     4.1565  -10.4439    2.2796 H        1 ZINC000585661851    0.0600
84     H84     2.7878  -10.5795    1.1550 H        1 ZINC000585661851    0.0700
85     H85     3.8325  -10.0934    4.6442 H        1 ZINC000585661851    0.0600
86     H86     2.2092  -10.1636    5.3710 H        1 ZINC000585661851    0.0500
87     H87     2.9583  -11.6419    4.7217 H        1 ZINC000585661851    0.0600
88     H88     3.3276   -8.6966    1.3022 H        1 ZINC000585661851    0.0600
89     H89     1.5818   -8.6386    1.0040 H        1 ZINC000585661851    0.0600
90     H90     3.2908   -6.4233    2.2503 H        1 ZINC000585661851    0.0600
91     H91     2.6378   -6.4281    0.5943 H        1 ZINC000585661851    0.0700
92     H92    -0.0811   -7.4760    0.9430 H        1 ZINC000585661851    0.0600
93     H93    -0.8860   -5.9900    1.5016 H        1 ZINC000585661851    0.0600
94     H94     0.3020   -5.9150    0.1783 H        1 ZINC000585661851    0.0600
95     H95    -0.6394    1.3758    1.3467 H        1 ZINC000585661851    0.0700
96     H96    -1.4428   -1.5626    1.5077 H        1 ZINC000585661851    0.0600
97     H97    -2.4621   -0.1553    1.8935 H        1 ZINC000585661851    0.0500
98     H98    -1.9519   -0.4510    0.2141 H        1 ZINC000585661851    0.0500
99     H99     1.0023    0.7003    3.0836 H        1 ZINC000585661851    0.0500
100    H100   -0.6681    0.4147    3.6281 H        1 ZINC000585661851    0.0500
101    H101    0.3316   -0.9484    3.0707 H        1 ZINC000585661851    0.0700
@<TRIPOS>BOND
1     1     2     1
2     1     54    1
3     1     55    1
4     1     56    1
5     2     3     1
6     2     57    1
7     2     58    1
8     3     4     1
9     3     5     1
10    3     51    1
11    5     6     1
12    5     59    1
13    5     60    1
14    6     7     1
15    6     61    1
16    6     62    1
17    7     8     1
18    7     9     1
19    7     10    1
20    9     63    1
21    9     64    1
22    9     65    1
23    10    11    1
24    10    49    1
25    10    12    1
26    12    13    1
27    12    66    1
28    12    67    1
29    13    14    1
30    13    68    1
31    13    69    1
32    14    15    1
33    14    49    1
34    14    16    1
35    16    17    1
36    16    45    1
37    16    18    1
38    18    19    1
39    18    70    1
40    18    71    1
41    19    20    2
42    19    72    1
43    20    43    1
44    20    21    1
45    21    22    1
46    21    73    1
47    21    74    1
48    22    23    1
49    22    24    1
50    22    41    1
51    24    25    1
52    25    26    1
53    25    38    1
54    25    27    1
55    27    28    1
56    28    29    1
57    28    30    1
58    28    32    1
59    30    31    1
60    30    75    1
61    30    76    1
62    31    77    1
63    32    33    1
64    32    34    1
65    32    35    1
66    34    78    1
67    35    36    1
68    35    37    1
69    35    38    1
70    37    79    1
71    38    39    1
72    38    40    1
73    40    80    1
74    41    42    1
75    41    81    1
76    41    82    1
77    42    43    1
78    42    83    1
79    42    84    1
80    43    44    1
81    43    45    1
82    44    85    1
83    44    86    1
84    44    87    1
85    45    46    1
86    45    47    1
87    47    48    1
88    47    88    1
89    47    89    1
90    48    49    1
91    48    90    1
92    48    91    1
93    49    50    1
94    50    92    1
95    50    93    1
96    50    94    1
97    51    52    1
98    51    53    1
99    51    95    1
100   52    96    1
101   52    97    1
102   52    98    1
103   53    99    1
104   53    100   1
105   53    101   1
@<TRIPOS>SUBSTRUCTURE
1   ZINC000585661851 1     RESIDUE    1   A     ZIN   1
