@<TRIPOS>MOLECULE
ZINC000049888929
103   109   1     0     0
SMALL
USER_CHARGES
@<TRIPOS>ATOM
1      C1     -5.5337    2.0928    0.7157 C.3      1 ZINC000049888929    0.0800
2      N2     -4.8052    0.8302    0.5696 N.pl3    1 ZINC000049888929   -0.7300
3      C3     -4.0023    0.6168   -0.5427 C.ar     1 ZINC000049888929    0.2800
4      C4     -3.9881    1.5394   -1.5812 C.ar     1 ZINC000049888929   -0.2200
5      C5     -3.1888    1.3252   -2.6855 C.ar     1 ZINC000049888929   -0.0300
6      C6     -2.3956    0.1919   -2.7688 C.ar     1 ZINC000049888929   -0.2000
7      C7     -2.3958   -0.7347   -1.7493 C.ar     1 ZINC000049888929   -0.0100
8      C8     -3.1956   -0.5302   -0.6215 C.ar     1 ZINC000049888929   -0.2200
9      C9     -3.2008   -1.5166    0.4722 C.2      1 ZINC000049888929    0.5200
10     O10    -3.9574   -1.3769    1.4129 O.2      1 ZINC000049888929   -0.5300
11     O11    -2.3665   -2.5741    0.4299 O.3      1 ZINC000049888929   -0.3400
12     C12    -2.4264   -3.5105    1.5476 C.3      1 ZINC000049888929    0.1100
13     H13    -2.7237   -2.9468    2.4417 H        1 ZINC000049888929    0.0800
14     C14    -3.4811   -4.5647    1.2525 C.3      1 ZINC000049888929   -0.1300
15     C15    -3.4586   -5.6766    2.2961 C.3      1 ZINC000049888929   -0.1100
16     C16    -2.0868   -6.3759    2.2674 C.3      1 ZINC000049888929   -0.0300
17     C17    -1.8916   -6.9703    0.8774 C.3      1 ZINC000049888929   -0.1500
18     C18    -1.0335   -5.3350    2.6272 C.3      1 ZINC000049888929   -0.0600
19     H19    -1.2898   -4.9981    3.6651 H        1 ZINC000049888929    0.0700
20     C20     0.3436   -5.9850    2.7349 C.3      1 ZINC000049888929   -0.1400
21     C21     0.3260   -6.9977    3.8866 C.3      1 ZINC000049888929    0.1200
22     H22     1.3123   -7.4669    3.9607 H        1 ZINC000049888929    0.0500
23     O23     0.0400   -6.3250    5.1136 O.3      1 ZINC000049888929   -0.5500
24     C24    -0.7211   -8.0776    3.6250 C.3      1 ZINC000049888929    0.0100
25     C25    -0.2298   -8.9721    2.4840 C.3      1 ZINC000049888929   -0.1500
26     C26    -2.0828   -7.4671    3.3315 C.3      1 ZINC000049888929   -0.0600
27     H27    -2.4129   -6.9660    4.2722 H        1 ZINC000049888929    0.0700
28     C28    -3.1126   -8.5571    3.0522 C.3      1 ZINC000049888929   -0.1100
29     C29    -3.5022   -9.2114    4.3850 C.3      1 ZINC000049888929   -0.0800
30     C30    -2.2612   -9.5419    5.2045 C.3      1 ZINC000049888929   -0.1400
31     C31    -1.6565   -8.4392    6.0803 C.3      1 ZINC000049888929   -0.1200
32     C32    -0.8774   -8.9573    4.8744 C.3      1 ZINC000049888929   -0.1000
33     C33     0.1452  -10.0827    5.1059 C.3      1 ZINC000049888929   -0.0900
34     C34    -0.5662  -11.0441    6.0982 C.3      1 ZINC000049888929   -0.1200
35     C35    -2.0347  -11.0096    5.6063 C.3      1 ZINC000049888929   -0.0200
36     H36    -2.1666  -11.6655    4.7476 H        1 ZINC000049888929    0.0800
37     C37    -2.9870  -11.4047    6.7367 C.3      1 ZINC000049888929   -0.1000
38     H38    -4.0233  -11.2787    6.4229 H        1 ZINC000049888929    0.0800
39     C39    -2.6993  -10.5658    8.0056 C.3      1 ZINC000049888929   -0.1500
40     C40    -2.8431  -11.6209    9.1319 C.3      1 ZINC000049888929    0.0500
41     H41    -3.8924  -11.7702    9.3863 H        1 ZINC000049888929    0.0700
42     C42    -2.0452  -11.2015   10.3681 C.3      1 ZINC000049888929    0.1300
43     H43    -2.4236  -10.2490   10.7389 H        1 ZINC000049888929    0.1200
44     O44    -0.6660  -11.0634   10.0206 O.3      1 ZINC000049888929   -0.5500
45     C45    -2.1926  -12.2672   11.4560 C.3      1 ZINC000049888929    0.1000
46     C46    -1.4369  -11.8236   12.7102 C.3      1 ZINC000049888929   -0.1800
47     C47    -3.6739  -12.4518   11.7917 C.3      1 ZINC000049888929   -0.1800
48     O48    -1.6527  -13.5044   10.9872 O.3      1 ZINC000049888929   -0.5400
49     O49    -2.2869  -12.8173    8.5456 O.3      1 ZINC000049888929   -0.3700
50     C50    -2.7294  -12.8593    7.1754 C.3      1 ZINC000049888929    0.2500
51     H51    -3.6484  -13.4405    7.1003 H        1 ZINC000049888929    0.0600
52     O52    -1.7161  -13.4447    6.3552 O.3      1 ZINC000049888929   -0.5400
53     C53    -1.0308   -4.0871    1.7735 C.3      1 ZINC000049888929   -0.0400
54     C54    -0.3263   -4.2877    0.4309 C.3      1 ZINC000049888929   -0.1400
55     C55    -0.2358   -2.9960    2.5375 C.3      1 ZINC000049888929   -0.1500
56     H56    -4.8249    2.9206    0.7398 H        1 ZINC000049888929    0.0600
57     H57    -6.2126    2.2202   -0.1274 H        1 ZINC000049888929    0.0600
58     H58    -6.1056    2.0770    1.6435 H        1 ZINC000049888929    0.0800
59     H59    -4.8837    0.1434    1.2501 H        1 ZINC000049888929    0.4200
60     H60    -4.6035    2.4250   -1.5243 H        1 ZINC000049888929    0.1300
61     H61    -3.1817    2.0453   -3.4903 H        1 ZINC000049888929    0.1300
62     H62    -1.7742    0.0340   -3.6379 H        1 ZINC000049888929    0.1300
63     H63    -1.7759   -1.6163   -1.8198 H        1 ZINC000049888929    0.1300
64     H64    -4.4738   -4.0830    1.2914 H        1 ZINC000049888929    0.0600
65     H65    -3.3620   -4.9601    0.2473 H        1 ZINC000049888929    0.0800
66     H66    -3.6142   -5.2572    3.2901 H        1 ZINC000049888929    0.0600
67     H67    -4.2390   -6.4029    2.0796 H        1 ZINC000049888929    0.0700
68     H68    -2.1526   -6.2268    0.1243 H        1 ZINC000049888929    0.0600
69     H69    -0.8498   -7.2651    0.7512 H        1 ZINC000049888929    0.0600
70     H70    -2.5329   -7.8442    0.7626 H        1 ZINC000049888929    0.0600
71     H71     0.6171   -6.4785    1.8076 H        1 ZINC000049888929    0.0800
72     H72     1.0990   -5.2268    2.9610 H        1 ZINC000049888929    0.0600
73     H73     0.6831   -5.6416    5.3467 H        1 ZINC000049888929    0.3700
74     H74     0.7465   -9.3838    2.7396 H        1 ZINC000049888929    0.0600
75     H75    -0.9382   -9.7859    2.3295 H        1 ZINC000049888929    0.0600
76     H76    -0.1479   -8.3833    1.5703 H        1 ZINC000049888929    0.0700
77     H77    -4.0097   -8.1119    2.6092 H        1 ZINC000049888929    0.0600
78     H78    -2.7379   -9.3143    2.3733 H        1 ZINC000049888929    0.0700
79     H79    -4.1366   -8.5202    4.9430 H        1 ZINC000049888929    0.0600
80     H80    -4.0604  -10.1245    4.1805 H        1 ZINC000049888929    0.0600
81     H81    -2.0968   -7.4469    6.0101 H        1 ZINC000049888929    0.1000
82     H82    -1.2939   -8.7242    7.0678 H        1 ZINC000049888929    0.0900
83     H83     0.3907  -10.6305    4.2025 H        1 ZINC000049888929    0.0700
84     H84     1.0522   -9.6837    5.5648 H        1 ZINC000049888929    0.0600
85     H85    -0.1563  -12.0503    6.0140 H        1 ZINC000049888929    0.0800
86     H86    -0.4861  -10.6751    7.1170 H        1 ZINC000049888929    0.0700
87     H87    -1.6888  -10.1580    7.9814 H        1 ZINC000049888929    0.1100
88     H88    -3.4356   -9.7705    8.1214 H        1 ZINC000049888929    0.0800
89     H89    -0.2625  -11.8744    9.6821 H        1 ZINC000049888929    0.3900
90     H90    -1.9019  -10.9251   13.1158 H        1 ZINC000049888929    0.0600
91     H91    -1.4713  -12.6185   13.4553 H        1 ZINC000049888929    0.0600
92     H92    -0.3992  -11.6113   12.4531 H        1 ZINC000049888929    0.0700
93     H93    -4.2123  -12.7678   10.8982 H        1 ZINC000049888929    0.0700
94     H94    -3.7790  -13.2110   12.5667 H        1 ZINC000049888929    0.0600
95     H95    -4.0857  -11.5080   12.1493 H        1 ZINC000049888929    0.0700
96     H96    -1.7125  -14.2272   11.6268 H        1 ZINC000049888929    0.3700
97     H97    -1.5422  -14.3759    6.5495 H        1 ZINC000049888929    0.3800
98     H98    -0.8932   -4.9946   -0.1748 H        1 ZINC000049888929    0.0600
99     H99    -0.2604   -3.3331   -0.0910 H        1 ZINC000049888929    0.0600
100    H100    0.6768   -4.6784    0.6018 H        1 ZINC000049888929    0.0600
101    H101    0.7839   -3.3415    2.7076 H        1 ZINC000049888929    0.0600
102    H102   -0.2153   -2.0804    1.9463 H        1 ZINC000049888929    0.0600
103    H103   -0.7173   -2.7993    3.4954 H        1 ZINC000049888929    0.0500
@<TRIPOS>BOND
1     1     2     1
2     1     56    1
3     1     57    1
4     1     58    1
5     2     3     1
6     2     59    1
7     3     8     ar
8     3     4     ar
9     4     5     ar
10    4     60    1
11    5     6     ar
12    5     61    1
13    6     7     ar
14    6     62    1
15    7     8     ar
16    7     63    1
17    8     9     1
18    9     10    2
19    9     11    1
20    11    12    1
21    12    13    1
22    12    53    1
23    12    14    1
24    14    15    1
25    14    64    1
26    14    65    1
27    15    16    1
28    15    66    1
29    15    67    1
30    16    26    1
31    16    17    1
32    16    18    1
33    17    68    1
34    17    69    1
35    17    70    1
36    18    19    1
37    18    20    1
38    18    53    1
39    20    21    1
40    20    71    1
41    20    72    1
42    21    22    1
43    21    23    1
44    21    24    1
45    23    73    1
46    24    32    1
47    24    25    1
48    24    26    1
49    25    74    1
50    25    75    1
51    25    76    1
52    26    27    1
53    26    28    1
54    28    29    1
55    28    77    1
56    28    78    1
57    29    30    1
58    29    79    1
59    29    80    1
60    30    32    1
61    30    35    1
62    30    31    1
63    31    32    1
64    31    81    1
65    31    82    1
66    32    33    1
67    33    34    1
68    33    83    1
69    33    84    1
70    34    35    1
71    34    85    1
72    34    86    1
73    35    36    1
74    35    37    1
75    37    38    1
76    37    50    1
77    37    39    1
78    39    40    1
79    39    87    1
80    39    88    1
81    40    41    1
82    40    42    1
83    40    49    1
84    42    43    1
85    42    44    1
86    42    45    1
87    44    89    1
88    45    46    1
89    45    47    1
90    45    48    1
91    46    90    1
92    46    91    1
93    46    92    1
94    47    93    1
95    47    94    1
96    47    95    1
97    48    96    1
98    49    50    1
99    50    51    1
100   50    52    1
101   52    97    1
102   53    54    1
103   53    55    1
104   54    98    1
105   54    99    1
106   54    100   1
107   55    101   1
108   55    102   1
109   55    103   1
@<TRIPOS>SUBSTRUCTURE
1   ZINC000049888929 1     RESIDUE    1   A     ZIN   1
