@<TRIPOS>MOLECULE
ZINC000003641076
  42   44    0    0    0
SMALL
USER_CHARGES
NO_NAME
@<TRIPOS>ATOM
    1 C1        0.5665     0.6534     1.8448 C.2    1 <0>      -0.1900
    2 C2        0.3444    -0.3877     1.0813 C.2    1 <0>      -0.1400
    3 C3        1.3172    -0.7397    -0.0145 C.3    1 <0>       0.0400
    4 C4        1.8735    -2.1440     0.2292 C.3    1 <0>      -0.1400
    5 C5        0.5993    -0.7028    -1.3651 C.3    1 <0>      -0.1300
    6 C6        2.4492     0.2551    -0.0200 C.ar   1 <0>      -0.2400
    7 C7        2.6178     1.0986    -1.0997 C.ar   1 <0>       0.2500
    8 O8        1.7779     1.0490    -2.1650 O.3    1 <0>      -0.2900
    9 C9        1.4988     2.2808    -2.8311 C.3    1 <0>       0.1500
   10 C10       0.7787     1.9896    -4.1492 C.3    1 <0>      -0.1300
   11 C11       0.5976     3.1415    -1.9434 C.3    1 <0>      -0.1700
   12 C12       2.7738     3.0294    -3.1168 C.2    1 <0>      -0.2700
   13 C13       3.8125     2.9150    -2.2912 C.2    1 <0>      -0.0100
   14 C14       3.6710     2.0316    -1.1143 C.ar   1 <0>      -0.3100
   15 C15       4.5509     2.1111    -0.0418 C.ar   1 <0>       0.3600
   16 O16       5.5666     3.0097    -0.0529 O.3    1 <0>      -0.6700
   17 C17       4.3756     1.2493     1.0554 C.ar   1 <0>      -0.3200
   18 C18       3.3159     0.3234     1.0649 C.ar   1 <0>       0.2400
   19 O19       3.1403    -0.5072     2.1138 O.3    1 <0>      -0.2500
   20 C20       3.9808    -0.4507     3.1540 C.2    1 <0>       0.5000
   21 O21       3.8084    -1.2081     4.0923 O.2    1 <0>      -0.5100
   22 C22       5.0575     0.4547     3.1993 C.2    1 <0>      -0.3600
   23 C23       5.2611     1.3103     2.1631 C.2    1 <0>       0.0800
   24 H24       1.4468     1.2593     1.6890 H      1 <0>       0.1000
   25 H25      -0.1330     0.9083     2.6272 H      1 <0>       0.0900
   26 H26      -0.5359    -0.9936     1.2371 H      1 <0>       0.1000
   27 H27       1.0547    -2.8635     0.2332 H      1 <0>       0.0500
   28 H28       2.5772    -2.3987    -0.5634 H      1 <0>       0.0500
   29 H29       2.3849    -2.1703     1.1914 H      1 <0>       0.0700
   30 H30       0.2030     0.2976    -1.5387 H      1 <0>       0.0700
   31 H31       1.3030    -0.9575    -2.1577 H      1 <0>       0.0600
   32 H32      -0.2194    -1.4223    -1.3612 H      1 <0>       0.0400
   33 H33      -0.1548     1.4651    -3.9451 H      1 <0>       0.0600
   34 H34       0.5639     2.9278    -4.6609 H      1 <0>       0.0700
   35 H35       1.4138     1.3685    -4.7808 H      1 <0>       0.0600
   36 H36       1.1034     3.3432    -0.9992 H      1 <0>       0.0600
   37 H37       0.3823     4.0830    -2.4486 H      1 <0>       0.0600
   38 H38      -0.3350     2.6114    -1.7500 H      1 <0>       0.0600
   39 H39       2.8461     3.6587    -3.9915 H      1 <0>       0.1100
   40 H40       4.7313     3.4517    -2.4761 H      1 <0>       0.1200
   41 H41       5.7158     0.4727     4.0553 H      1 <0>       0.1400
   42 H42       6.0812     2.0128     2.1782 H      1 <0>       0.1400
@<TRIPOS>BOND
   1    1    2 2
   2    1   24 1
   3    1   25 1
   4    2    3 1
   5    2   26 1
   6    3    4 1
   7    3    5 1
   8    3    6 1
   9    4   27 1
  10    4   28 1
  11    4   29 1
  12    5   30 1
  13    5   31 1
  14    5   32 1
  15    6   18 ar
  16    6    7 ar
  17    7   14 ar
  18    7    8 1
  19    8    9 1
  20    9   10 1
  21    9   11 1
  22    9   12 1
  23   10   33 1
  24   10   34 1
  25   10   35 1
  26   11   36 1
  27   11   37 1
  28   11   38 1
  29   12   13 2
  30   12   39 1
  31   13   14 1
  32   13   40 1
  33   14   15 ar
  34   15   16 1
  35   15   17 ar
  36   17   23 1
  37   17   18 ar
  38   18   19 1
  39   19   20 1
  40   20   21 2
  41   20   22 1
  42   22   23 2
  43   22   41 1
  44   23   42 1
