@<TRIPOS>MOLECULE
ZINC000003785416
  80   84    0    0    0
SMALL
USER_CHARGES
NO_NAME
@<TRIPOS>ATOM
    1 C1       -0.0135     2.5491     2.1050 C.3    1 <0>      -0.1400
    2 C2       -0.0584     1.0705     1.7236 C.3    1 <0>      -0.0600
    3 C3       -1.5217     0.6035     1.7328 C.3    1 <0>      -0.1400
    4 C4        0.5133     0.8603     0.3229 C.3    1 <0>      -0.1000
    5 C5        1.9966     1.2021     0.2803 C.3    1 <0>      -0.0900
    6 C6        2.7847     0.3775     1.2981 C.3    1 <0>      -0.1100
    7 C7        4.2150     0.8665     1.2790 C.2    1 <0>       0.5000
    8 O8        4.5401     1.7710     0.5289 O.co2  1 <0>      -0.7100
    9 O9        5.0435     0.3563     2.0137 O.co2  1 <0>      -0.6700
   10 C10       2.7426    -1.1021     0.9334 C.3    1 <0>      -0.0900
   11 C11       3.6554    -1.9140     1.8509 C.3    1 <0>      -0.0900
   12 C12       3.3080    -1.7306     3.3190 C.3    1 <0>       0.0200
   13 C13       2.0588    -2.5794     3.5974 C.3    1 <0>      -0.1500
   14 C14       2.9688    -0.3151     3.6709 C.2    1 <0>      -0.0300
   15 C15       3.3004     0.2396     4.8083 C.2    1 <0>      -0.2000
   16 C16       4.1022    -0.4341     5.8829 C.3    1 <0>      -0.0700
   17 C17       4.0896    -1.9488     5.6688 C.3    1 <0>      -0.0600
   18 H18       3.0496    -2.2868     5.8645 H      1 <0>       0.0600
   19 C19       4.9501    -2.6596     6.7145 C.3    1 <0>      -0.0300
   20 C20       6.3451    -2.0523     6.7951 C.3    1 <0>      -0.1500
   21 C21       4.2733    -2.4745     8.0850 C.3    1 <0>      -0.1100
   22 C22       5.0473    -3.2503     9.1460 C.3    1 <0>      -0.1500
   23 C23       5.0151    -4.7407     8.8363 C.3    1 <0>       0.1200
   24 H24       3.9812    -5.0978     8.8965 H      1 <0>       0.0500
   25 O25       5.7933    -5.4453     9.8118 O.3    1 <0>      -0.5700
   26 C26       5.5625    -5.0529     7.4427 C.3    1 <0>      -0.0400
   27 C27       7.0911    -5.0334     7.4661 C.3    1 <0>      -0.1300
   28 C28       5.1336    -6.5051     7.1220 C.3    1 <0>      -0.1500
   29 C29       4.9798    -4.1448     6.3836 C.3    1 <0>      -0.0600
   30 H30       3.9080    -4.4495     6.2639 H      1 <0>       0.0600
   31 C31       5.6165    -4.3447     5.0086 C.3    1 <0>      -0.1100
   32 C32       4.6523    -3.7461     3.9711 C.3    1 <0>      -0.1100
   33 C33       4.4364    -2.2605     4.2221 C.3    1 <0>      -0.0300
   34 C34       5.7181    -1.5124     3.8174 C.3    1 <0>      -0.1400
   35 C35       2.2110     0.5724     2.6983 C.3    1 <0>      -0.0200
   36 H36       2.3594     1.6195     3.0008 H      1 <0>       0.0600
   37 C37       0.7262     0.2347     2.7344 C.3    1 <0>      -0.1000
   38 H38       1.0219     2.8894     2.1190 H      1 <0>       0.0600
   39 H39      -0.5771     3.1299     1.3748 H      1 <0>       0.0500
   40 H40      -0.4534     2.6829     3.0933 H      1 <0>       0.0500
   41 H41      -2.0944     1.1889     1.0134 H      1 <0>       0.0500
   42 H42      -1.5681    -0.4513     1.4620 H      1 <0>       0.0500
   43 H43      -1.9409     0.7416     2.7294 H      1 <0>       0.0500
   44 H44       0.3692    -0.1815     0.0251 H      1 <0>       0.0500
   45 H45      -0.0260     1.4983    -0.3839 H      1 <0>       0.0500
   46 H46       2.3862     0.9865    -0.7210 H      1 <0>       0.0500
   47 H47       2.1493     2.2629     0.4794 H      1 <0>       0.0600
   48 H48       1.7195    -1.4726     1.0046 H      1 <0>       0.0400
   49 H49       3.0805    -1.2235    -0.1012 H      1 <0>       0.0400
   50 H50       3.5065    -2.9827     1.5984 H      1 <0>       0.0300
   51 H51       4.6895    -1.6923     1.6176 H      1 <0>       0.0900
   52 H52       2.3036    -3.6352     3.4814 H      1 <0>       0.0500
   53 H53       1.7142    -2.3960     4.6151 H      1 <0>       0.0500
   54 H54       1.2718    -2.3095     2.8931 H      1 <0>       0.0500
   55 H55       2.9708     1.2557     4.9822 H      1 <0>       0.0900
   56 H56       5.1067    -0.0247     5.8870 H      1 <0>       0.0700
   57 H57       3.6367    -0.2089     6.8516 H      1 <0>       0.0500
   58 H58       6.2648    -0.9705     6.9017 H      1 <0>       0.0600
   59 H59       6.8714    -2.4641     7.6562 H      1 <0>       0.0500
   60 H60       6.8970    -2.2877     5.8852 H      1 <0>       0.0700
   61 H61       4.2668    -1.4141     8.3364 H      1 <0>       0.0700
   62 H62       3.2502    -2.8440     8.0279 H      1 <0>       0.0600
   63 H63       6.0707    -2.8967     9.2277 H      1 <0>       0.0800
   64 H64       4.5621    -3.0836    10.1194 H      1 <0>       0.0500
   65 H65       5.4797    -5.3346    10.7198 H      1 <0>       0.3700
   66 H66       7.4554    -5.8514     8.0876 H      1 <0>       0.0600
   67 H67       7.4716    -5.1506     6.4514 H      1 <0>       0.0500
   68 H68       7.4362    -4.0842     7.8761 H      1 <0>       0.0600
   69 H69       4.0459    -6.5750     7.1396 H      1 <0>       0.0500
   70 H70       5.4995    -6.7822     6.1334 H      1 <0>       0.0600
   71 H71       5.5532    -7.1809     7.8673 H      1 <0>       0.0600
   72 H72       6.5842    -3.8681     4.9364 H      1 <0>       0.0700
   73 H73       5.7264    -5.4095     4.7923 H      1 <0>       0.0500
   74 H74       5.0886    -3.8883     2.9770 H      1 <0>       0.0600
   75 H75       3.7278    -4.3149     4.0291 H      1 <0>       0.0600
   76 H76       5.8725    -1.6111     2.7429 H      1 <0>       0.0700
   77 H77       5.6200    -0.4578     4.0749 H      1 <0>       0.0800
   78 H78       6.5701    -1.9381     4.3475 H      1 <0>       0.0300
   79 H79       0.3323     0.4214     3.7365 H      1 <0>       0.0500
   80 H80       0.5719    -0.8177     2.4887 H      1 <0>       0.0600
@<TRIPOS>BOND
   1    1    2 1
   2    1   38 1
   3    1   39 1
   4    1   40 1
   5    2   37 1
   6    2    3 1
   7    2    4 1
   8    3   41 1
   9    3   42 1
  10    3   43 1
  11    4    5 1
  12    4   44 1
  13    4   45 1
  14    5    6 1
  15    5   46 1
  16    5   47 1
  17    6   35 1
  18    6    7 1
  19    6   10 1
  20    7    8 ar
  21    7    9 ar
  22   10   11 1
  23   10   48 1
  24   10   49 1
  25   11   12 1
  26   11   50 1
  27   11   51 1
  28   12   33 1
  29   12   13 1
  30   12   14 1
  31   13   52 1
  32   13   53 1
  33   13   54 1
  34   14   15 2
  35   14   35 1
  36   15   16 1
  37   15   55 1
  38   16   17 1
  39   16   56 1
  40   16   57 1
  41   17   18 1
  42   17   33 1
  43   17   19 1
  44   19   29 1
  45   19   20 1
  46   19   21 1
  47   20   58 1
  48   20   59 1
  49   20   60 1
  50   21   22 1
  51   21   61 1
  52   21   62 1
  53   22   23 1
  54   22   63 1
  55   22   64 1
  56   23   24 1
  57   23   25 1
  58   23   26 1
  59   25   65 1
  60   26   27 1
  61   26   28 1
  62   26   29 1
  63   27   66 1
  64   27   67 1
  65   27   68 1
  66   28   69 1
  67   28   70 1
  68   28   71 1
  69   29   30 1
  70   29   31 1
  71   31   32 1
  72   31   72 1
  73   31   73 1
  74   32   33 1
  75   32   74 1
  76   32   75 1
  77   33   34 1
  78   34   76 1
  79   34   77 1
  80   34   78 1
  81   35   36 1
  82   35   37 1
  83   37   79 1
  84   37   80 1
