@<TRIPOS>MOLECULE
ZINC000000057670
35    37    1     0     0
SMALL
USER_CHARGES
@<TRIPOS>ATOM
1      C1     -0.0173    1.4248    0.0099 C.3      1 ZINC000000057670    0.0200
2      O2      0.0021   -0.0041    0.0020 O.3      1 ZINC000000057670   -0.3100
3      C3     -1.1990   -0.6368    0.0101 C.ar     1 ZINC000000057670    0.1600
4      C4     -2.3735    0.1062    0.0196 C.ar     1 ZINC000000057670   -0.2100
5      C5     -3.5941   -0.5316    0.0278 C.ar     1 ZINC000000057670   -0.0300
6      C6     -3.6506   -1.9283    0.0266 C.ar     1 ZINC000000057670   -0.1200
7      C7     -4.9555   -2.6157    0.0348 C.2      1 ZINC000000057670    0.2200
8      C8     -4.9782   -3.9764    0.0390 C.2      1 ZINC000000057670   -0.3200
9      C9     -6.2197   -4.6532    0.0475 C.2      1 ZINC000000057670    0.4300
10     O10    -6.2774   -5.8720    0.0519 O.2      1 ZINC000000057670   -0.4800
11     C11    -7.4424   -3.8279    0.0513 C.ar     1 ZINC000000057670   -0.2600
12     C12    -8.7095   -4.4103    0.0601 C.ar     1 ZINC000000057670    0.0100
13     C13    -9.8211   -3.6157    0.0639 C.ar     1 ZINC000000057670   -0.2300
14     C14    -9.6951   -2.2287    0.0590 C.ar     1 ZINC000000057670    0.1900
15     O15   -10.8082   -1.4516    0.0632 O.3      1 ZINC000000057670   -0.3100
16     C16   -12.0689   -2.1243    0.0727 C.3      1 ZINC000000057670    0.0200
17     C17    -8.4431   -1.6356    0.0503 C.ar     1 ZINC000000057670   -0.1800
18     C18    -7.3056   -2.4291    0.0464 C.ar     1 ZINC000000057670    0.1900
19     O19    -6.0750   -1.8752    0.0435 O.3      1 ZINC000000057670   -0.2200
20     C20    -2.4668   -2.6716    0.0170 C.ar     1 ZINC000000057670   -0.0400
21     C21    -1.2506   -2.0256    0.0031 C.ar     1 ZINC000000057670   -0.1500
22     H22     1.0053    1.8021    0.0021 H        1 ZINC000000057670    0.1100
23     H23    -0.5445    1.7859   -0.8732 H        1 ZINC000000057670    0.0600
24     H24    -0.5275    1.7763    0.9067 H        1 ZINC000000057670    0.0600
25     H25    -2.3289    1.1853    0.0208 H        1 ZINC000000057670    0.1400
26     H26    -4.5063    0.0466    0.0355 H        1 ZINC000000057670    0.1400
27     H27    -4.0543   -4.5356    0.0356 H        1 ZINC000000057670    0.1600
28     H28    -8.8118   -5.4854    0.0636 H        1 ZINC000000057670    0.1500
29     H29   -10.8028   -4.0657    0.0703 H        1 ZINC000000057670    0.1400
30     H30   -12.1424   -2.7460    0.9650 H        1 ZINC000000057670    0.0600
31     H31   -12.8732   -1.3886    0.0753 H        1 ZINC000000057670    0.1100
32     H32   -12.1529   -2.7513   -0.8149 H        1 ZINC000000057670    0.0600
33     H33    -8.3533   -0.5593    0.0462 H        1 ZINC000000057670    0.1500
34     H34    -2.5059   -3.7509    0.0165 H        1 ZINC000000057670    0.1400
35     H35    -0.3355   -2.5991   -0.0043 H        1 ZINC000000057670    0.1400
@<TRIPOS>BOND
1     1     2     1
2     1     22    1
3     1     23    1
4     1     24    1
5     2     3     1
6     3     21    ar
7     3     4     ar
8     4     5     ar
9     4     25    1
10    5     6     ar
11    5     26    1
12    6     7     1
13    6     20    ar
14    7     19    1
15    7     8     2
16    8     9     1
17    8     27    1
18    9     10    2
19    9     11    1
20    11    18    ar
21    11    12    ar
22    12    13    ar
23    12    28    1
24    13    14    ar
25    13    29    1
26    14    15    1
27    14    17    ar
28    15    16    1
29    16    30    1
30    16    31    1
31    16    32    1
32    17    18    ar
33    17    33    1
34    18    19    1
35    20    21    ar
36    20    34    1
37    21    35    1
@<TRIPOS>SUBSTRUCTURE
1   ZINC000000057670 1     RESIDUE    1   A     ZIN   1
