@<TRIPOS>MOLECULE
ZINC000000001554
  15   15    0    0    0
SMALL
USER_CHARGES
NO_NAME
@<TRIPOS>ATOM
    1 O1        0.0021    -0.0041     0.0020 O.co2  1 <0>      -0.6900
    2 C2       -0.0145     1.2192     0.0087 C.2    1 <0>       0.5200
    3 O3        1.0365     1.8453     0.0021 O.co2  1 <0>      -0.6700
    4 C4       -1.2989     1.9376     0.0187 C.ar   1 <0>      -0.1600
    5 C5       -2.5030     1.2264     0.0264 C.ar   1 <0>      -0.0700
    6 C6       -3.7014     1.9054     0.0363 C.ar   1 <0>      -0.1500
    7 C7       -3.7205     3.2909     0.0381 C.ar   1 <0>      -0.1200
    8 C8       -2.5396     4.0065     0.0301 C.ar   1 <0>      -0.1700
    9 C9       -1.3230     3.3408     0.0265 C.ar   1 <0>       0.1400
   10 O10      -0.1625     4.0422     0.0187 O.3    1 <0>      -0.4800
   11 H11      -2.4932     0.1464     0.0243 H      1 <0>       0.1300
   12 H12      -4.6307     1.3552     0.0422 H      1 <0>       0.1200
   13 H13      -4.6650     3.8145     0.0455 H      1 <0>       0.1200
   14 H14      -2.5634     5.0862     0.0309 H      1 <0>       0.1200
   15 H15       0.1783     4.2486     0.8998 H      1 <0>       0.3800
@<TRIPOS>BOND
   1    1    2 ar
   2    2    3 ar
   3    2    4 1
   4    4    9 ar
   5    4    5 ar
   6    5    6 ar
   7    5   11 1
   8    6    7 ar
   9    6   12 1
  10    7    8 ar
  11    7   13 1
  12    8    9 ar
  13    8   14 1
  14    9   10 1
  15   10   15 1
