@<TRIPOS>MOLECULE
ZINC000000116202
  26   26    0    0    0
SMALL
USER_CHARGES
NO_NAME
@<TRIPOS>ATOM
    1 C1       -0.0173     1.4248     0.0099 C.3    1 <0>       0.0300
    2 O2        0.0021    -0.0041     0.0020 O.3    1 <0>      -0.3100
    3 C3        0.6053    -0.6066    -1.0549 C.ar   1 <0>       0.0800
    4 C4        1.1719     0.1650    -2.0607 C.ar   1 <0>      -0.1700
    5 C5        1.7853    -0.4402    -3.1354 C.ar   1 <0>      -0.1200
    6 C6        1.8383    -1.8368    -3.2150 C.ar   1 <0>      -0.0300
    7 C7        2.4919    -2.4850    -4.3593 C.2    1 <0>      -0.1200
    8 C8        3.0442    -1.7320    -5.3388 C.2    1 <0>      -0.1600
    9 C9        3.6733    -2.3558    -6.4402 C.2    1 <0>       0.5000
   10 O10       3.7186    -3.5784    -6.5080 O.co2  1 <0>      -0.7000
   11 O11       4.1734    -1.6741    -7.3270 O.co2  1 <0>      -0.7000
   12 C12       1.2663    -2.6142    -2.1998 C.ar   1 <0>      -0.1700
   13 C13       0.6589    -1.9990    -1.1240 C.ar   1 <0>       0.1000
   14 O14       0.1029    -2.7505    -0.1362 O.3    1 <0>      -0.3100
   15 C15       0.1844    -4.1702    -0.2772 C.3    1 <0>       0.0300
   16 H16       1.0053     1.8021     0.0021 H      1 <0>       0.0500
   17 H17      -0.5445     1.7859    -0.8732 H      1 <0>       0.0500
   18 H18      -0.5275     1.7763     0.9067 H      1 <0>       0.1000
   19 H19       1.1313     1.2426    -2.0004 H      1 <0>       0.1300
   20 H20       2.2248     0.1626    -3.9164 H      1 <0>       0.1300
   21 H21       2.5318    -3.5626    -4.4191 H      1 <0>       0.1300
   22 H22       3.0042    -0.6544    -5.2790 H      1 <0>       0.1000
   23 H23       1.3045    -3.6921    -2.2565 H      1 <0>       0.1400
   24 H24      -0.3195    -4.4737    -1.1948 H      1 <0>       0.0600
   25 H25       1.2310    -4.4715    -0.3206 H      1 <0>       0.0600
   26 H26      -0.2962    -4.6482     0.5764 H      1 <0>       0.1000
@<TRIPOS>BOND
   1    1    2 1
   2    1   16 1
   3    1   17 1
   4    1   18 1
   5    2    3 1
   6    3   13 ar
   7    3    4 ar
   8    4    5 ar
   9    4   19 1
  10    5    6 ar
  11    5   20 1
  12    6    7 1
  13    6   12 ar
  14    7    8 2
  15    7   21 1
  16    8    9 1
  17    8   22 1
  18    9   10 ar
  19    9   11 ar
  20   12   13 ar
  21   12   23 1
  22   13   14 1
  23   14   15 1
  24   15   24 1
  25   15   25 1
  26   15   26 1
