@<TRIPOS>MOLECULE
ZINC000000153654
  27   27    0    0    0
SMALL
USER_CHARGES
NO_NAME
@<TRIPOS>ATOM
    1 C1       -0.0173     1.4248     0.0099 C.3    1 <0>       0.0200
    2 O2        0.0021    -0.0041     0.0020 O.3    1 <0>      -0.3100
    3 C3        0.6062    -0.6075    -1.0565 C.ar   1 <0>       0.1400
    4 C4        1.1703     0.1589    -2.0578 C.ar   1 <0>      -0.2300
    5 C5        1.7921    -0.4634    -3.1472 C.ar   1 <0>       0.0400
    6 C6        2.3934     0.3478    -4.2135 C.2    1 <0>      -0.1300
    7 C7        2.9940    -0.2555    -5.2657 C.2    1 <0>      -0.1500
    8 C8        3.5727     0.5252    -6.2920 C.2    1 <0>       0.5000
    9 O9        3.5307     1.7482    -6.2291 O.co2  1 <0>      -0.6900
   10 O10       4.1164    -0.0209    -7.2446 O.co2  1 <0>      -0.7000
   11 C11       1.8395    -1.8611    -3.2170 C.ar   1 <0>      -0.2300
   12 C12       1.2732    -2.6206    -2.2118 C.ar   1 <0>       0.1400
   13 O13       1.3191    -3.9782    -2.2785 O.3    1 <0>      -0.3100
   14 C14       1.9683    -4.5503    -3.4157 C.3    1 <0>       0.0200
   15 C15       0.6604    -1.9978    -1.1267 C.ar   1 <0>       0.0200
   16 O16       0.1044    -2.7484    -0.1398 O.3    1 <0>      -0.4700
   17 H17       1.0053     1.8021     0.0021 H      1 <0>       0.0600
   18 H18      -0.5445     1.7859    -0.8732 H      1 <0>       0.0600
   19 H19      -0.5275     1.7763     0.9067 H      1 <0>       0.1000
   20 H20       1.1314     1.2367    -2.0006 H      1 <0>       0.1400
   21 H21       2.3563     1.4257    -4.1580 H      1 <0>       0.1300
   22 H22       3.0310    -1.3334    -5.3211 H      1 <0>       0.1000
   23 H23       2.3179    -2.3446    -4.0559 H      1 <0>       0.1400
   24 H24       1.4589    -4.2294    -4.3244 H      1 <0>       0.0600
   25 H25       3.0067    -4.2203    -3.4455 H      1 <0>       0.0600
   26 H26       1.9344    -5.6374    -3.3447 H      1 <0>       0.1000
   27 H27       0.7129    -2.9648     0.5799 H      1 <0>       0.3800
@<TRIPOS>BOND
   1    1    2 1
   2    1   17 1
   3    1   18 1
   4    1   19 1
   5    2    3 1
   6    3   15 ar
   7    3    4 ar
   8    4    5 ar
   9    4   20 1
  10    5    6 1
  11    5   11 ar
  12    6    7 2
  13    6   21 1
  14    7    8 1
  15    7   22 1
  16    8    9 ar
  17    8   10 ar
  18   11   12 ar
  19   11   23 1
  20   12   13 1
  21   12   15 ar
  22   13   14 1
  23   14   24 1
  24   14   25 1
  25   14   26 1
  26   15   16 1
  27   16   27 1
