@<TRIPOS>MOLECULE
ZINC000001683524
  11   10    0    0    0
SMALL
USER_CHARGES
NO_NAME
@<TRIPOS>ATOM
    1 C1       -0.0160     1.3283     0.0093 C.2    1 <0>      -0.1900
    2 C2        0.0021    -0.0041     0.0020 C.2    1 <0>      -0.1800
    3 C3        1.3172    -0.7397    -0.0145 C.3    1 <0>      -0.1000
    4 C4       -1.2583    -0.7548     0.0100 C.2    1 <0>       0.5100
    5 O5       -2.3262    -0.1574     0.0234 O.co2  1 <0>      -0.6900
    6 O6       -1.2417    -1.9784     0.0033 O.co2  1 <0>      -0.7000
    7 H7        0.9119     1.8810     0.0035 H      1 <0>       0.0800
    8 H8       -0.9585     1.8555     0.0167 H      1 <0>       0.1000
    9 H9        1.6441    -0.9226     1.0091 H      1 <0>       0.0600
   10 H10       1.1949    -1.6910    -0.5323 H      1 <0>       0.0700
   11 H11       2.0639    -0.1376    -0.5322 H      1 <0>       0.0400
@<TRIPOS>BOND
   1    1    2 2
   2    1    7 1
   3    1    8 1
   4    2    3 1
   5    2    4 1
   6    3    9 1
   7    3   10 1
   8    3   11 1
   9    4    5 ar
  10    4    6 ar
