@<TRIPOS>MOLECULE
ZINC000000014036
  30   31    0    0    0
SMALL
USER_CHARGES
NO_NAME
@<TRIPOS>ATOM
    1 O1       -0.0164     1.3548     0.0095 O.3    1 <0>      -0.5000
    2 C2        0.0021    -0.0041     0.0020 C.ar   1 <0>       0.1300
    3 C3        0.0057    -0.6886    -1.2015 C.ar   1 <0>      -0.1400
    4 C4        0.0247    -2.0853    -1.2079 C.ar   1 <0>      -0.0200
    5 C5        0.0291    -2.8189    -2.4863 C.2    1 <0>      -0.1100
    6 C6        0.0473    -4.1615    -2.4898 C.2    1 <0>      -0.1000
    7 C7        0.0517    -4.8949    -3.7678 C.ar   1 <0>      -0.0500
    8 C8        0.0428    -4.1950    -4.9770 C.ar   1 <0>      -0.1000
    9 C9        0.0469    -4.8836    -6.1721 C.ar   1 <0>      -0.1300
   10 C10       0.0599    -6.2705    -6.1772 C.ar   1 <0>       0.0800
   11 O11       0.0639    -6.9440    -7.3580 O.3    1 <0>      -0.4900
   12 C12       0.0694    -6.9754    -4.9750 C.ar   1 <0>       0.0800
   13 O13       0.0831    -8.3352    -4.9844 O.3    1 <0>      -0.4900
   14 C14       0.0707    -6.2928    -3.7736 C.ar   1 <0>      -0.1200
   15 C15       0.0399    -2.7845     0.0013 C.ar   1 <0>      -0.1500
   16 C16       0.0361    -2.0908     1.1996 C.ar   1 <0>       0.1300
   17 O17       0.0508    -2.7699     2.3767 O.3    1 <0>      -0.5000
   18 C18       0.0229    -0.7031     1.2006 C.ar   1 <0>      -0.1700
   19 H19       0.8616     1.7601     0.0033 H      1 <0>       0.3900
   20 H20      -0.0065    -0.1436    -2.1339 H      1 <0>       0.1400
   21 H21       0.0177    -2.2766    -3.4201 H      1 <0>       0.1300
   22 H22       0.0587    -4.7039    -1.5559 H      1 <0>       0.1300
   23 H23       0.0323    -3.1150    -4.9760 H      1 <0>       0.1300
   24 H24       0.0396    -4.3415    -7.1062 H      1 <0>       0.1400
   25 H25       0.9485    -7.1306    -7.7014 H      1 <0>       0.3900
   26 H26       0.9704    -8.7196    -4.9888 H      1 <0>       0.3900
   27 H27       0.0784    -6.8379    -2.8413 H      1 <0>       0.1400
   28 H28       0.0542    -3.8644     0.0015 H      1 <0>       0.1400
   29 H29       0.9384    -2.9544     2.7132 H      1 <0>       0.3900
   30 H30       0.0200    -0.1656     2.1373 H      1 <0>       0.1400
@<TRIPOS>BOND
   1    1    2 1
   2    1   19 1
   3    2   18 ar
   4    2    3 ar
   5    3    4 ar
   6    3   20 1
   7    4    5 1
   8    4   15 ar
   9    5    6 2
  10    5   21 1
  11    6    7 1
  12    6   22 1
  13    7   14 ar
  14    7    8 ar
  15    8    9 ar
  16    8   23 1
  17    9   10 ar
  18    9   24 1
  19   10   11 1
  20   10   12 ar
  21   11   25 1
  22   12   13 1
  23   12   14 ar
  24   13   26 1
  25   14   27 1
  26   15   16 ar
  27   15   28 1
  28   16   17 1
  29   16   18 ar
  30   17   29 1
  31   18   30 1
