@<TRIPOS>MOLECULE
ZINC000003473596
39    41    1     0     0
SMALL
USER_CHARGES
@<TRIPOS>ATOM
1      C1     -0.0173    1.4248    0.0099 C.3      1 ZINC000003473596    0.0200
2      O2      0.0021   -0.0041    0.0020 O.3      1 ZINC000003473596   -0.2800
3      C3      0.6033   -0.6047   -1.0514 C.2      1 ZINC000003473596    0.1100
4      C4      1.1553    0.1413   -2.0310 C.2      1 ZINC000003473596   -0.3000
5      C5      1.8071   -0.5119   -3.1719 C.2      1 ZINC000003473596    0.4200
6      O6      2.3038    0.1616   -4.0535 O.2      1 ZINC000003473596   -0.4200
7      C7      1.8617   -1.9877   -3.2517 C.2      1 ZINC000003473596   -0.1000
8      C8      2.5330   -2.6524   -4.4258 C.3      1 ZINC000003473596   -0.0900
9      H9      2.4773   -3.7354   -4.3160 H        1 ZINC000003473596    0.1100
10     C10     4.0015   -2.2148   -4.4976 C.3      1 ZINC000003473596    0.0600
11     O11     4.6354   -2.9379   -5.5536 O.3      1 ZINC000003473596   -0.3000
12     C12     4.0158   -2.9693   -6.7632 C.ar     1 ZINC000003473596    0.1300
13     C13     2.6784   -2.6461   -6.9060 C.ar     1 ZINC000003473596   -0.1500
14     C14     2.0843   -2.6977   -8.1573 C.ar     1 ZINC000003473596   -0.0700
15     C15     2.8190   -3.0662   -9.2665 C.ar     1 ZINC000003473596   -0.1600
16     C16     4.1614   -3.3880   -9.1326 C.ar     1 ZINC000003473596    0.1200
17     O17     4.8882   -3.7496  -10.2237 O.3      1 ZINC000003473596   -0.4800
18     C18     4.7607   -3.3400   -7.8815 C.ar     1 ZINC000003473596    0.0400
19     O19     6.0777   -3.6552   -7.7466 O.3      1 ZINC000003473596   -0.3200
20     C20     7.0173   -2.5865   -7.8783 C.3      1 ZINC000003473596    0.0400
21     C21     1.8404   -2.2292   -5.7236 C.3      1 ZINC000003473596   -0.0700
22     C22     1.3164   -2.7351   -2.2831 C.2      1 ZINC000003473596   -0.1300
23     C23     0.6628   -2.0860   -1.1293 C.2      1 ZINC000003473596    0.4200
24     O24     0.1686   -2.7618   -0.2504 O.2      1 ZINC000003473596   -0.3800
25     H25     1.0053    1.8021    0.0021 H        1 ZINC000003473596    0.0700
26     H26    -0.5445    1.7859   -0.8732 H        1 ZINC000003473596    0.0700
27     H27    -0.5275    1.7763    0.9067 H        1 ZINC000003473596    0.1100
28     H28     1.1170    1.2192   -1.9754 H        1 ZINC000003473596    0.1600
29     H29     4.0564   -1.1452   -4.7004 H        1 ZINC000003473596    0.0800
30     H30     4.4971   -2.4356   -3.5522 H        1 ZINC000003473596    0.1100
31     H31     1.0390   -2.4483   -8.2653 H        1 ZINC000003473596    0.1400
32     H32     2.3486   -3.1041  -10.2380 H        1 ZINC000003473596    0.1400
33     H33     5.3148   -3.0085  -10.6753 H        1 ZINC000003473596    0.3900
34     H34     8.0281   -2.9735   -7.7492 H        1 ZINC000003473596    0.1000
35     H35     6.9229   -2.1398   -8.8681 H        1 ZINC000003473596    0.0400
36     H36     6.8175   -1.8313   -7.1182 H        1 ZINC000003473596    0.0500
37     H37     0.8623   -2.7062   -5.7860 H        1 ZINC000003473596    0.0900
38     H38     1.7161   -1.1463   -5.7309 H        1 ZINC000003473596    0.1000
39     H39     1.3579   -3.8126   -2.3444 H        1 ZINC000003473596    0.1700
@<TRIPOS>BOND
1     1     2     1
2     1     25    1
3     1     26    1
4     1     27    1
5     2     3     1
6     3     23    1
7     3     4     2
8     4     5     1
9     4     28    1
10    5     6     2
11    5     7     1
12    7     8     1
13    7     22    2
14    8     9     1
15    8     21    1
16    8     10    1
17    10    11    1
18    10    29    1
19    10    30    1
20    11    12    1
21    12    18    ar
22    12    13    ar
23    13    14    ar
24    13    21    1
25    14    15    ar
26    14    31    1
27    15    16    ar
28    15    32    1
29    16    17    1
30    16    18    ar
31    17    33    1
32    18    19    1
33    19    20    1
34    20    34    1
35    20    35    1
36    20    36    1
37    21    37    1
38    21    38    1
39    22    23    1
40    22    39    1
41    23    24    2
@<TRIPOS>SUBSTRUCTURE
1   ZINC000003473596 1     RESIDUE    1   A     ZIN   1
