@<TRIPOS>MOLECULE
ZINC000000895412
  14   13    0    0    0
SMALL
USER_CHARGES
NO_NAME
@<TRIPOS>ATOM
    1 C1       -0.0187     1.5258     0.0104 C.3    1 <0>      -0.1500
    2 C2        0.0021    -0.0041     0.0020 C.3    1 <0>       0.0600
    3 O3        0.7043    -0.4851     1.1784 O.3    1 <0>      -0.3600
    4 C4        0.8118    -1.8153     1.3225 C.2    1 <0>       0.4600
    5 C5        1.5273    -2.3882     2.5187 C.3    1 <0>      -0.1500
    6 O6        0.3348    -2.5533     0.4932 O.2    1 <0>      -0.5200
    7 H7        1.0039     1.9031     0.0027 H      1 <0>       0.0700
    8 H8       -0.5459     1.8868    -0.8726 H      1 <0>       0.0800
    9 H9       -0.5289     1.8773     0.9072 H      1 <0>       0.0700
   10 H10      -1.0205    -0.3814     0.0098 H      1 <0>       0.0700
   11 H11       0.5123    -0.3556    -0.8948 H      1 <0>       0.0700
   12 H12       0.8148    -2.5412     3.3293 H      1 <0>       0.1100
   13 H13       1.9806    -3.3420     2.2485 H      1 <0>       0.1000
   14 H14       2.3040    -1.6959     2.8434 H      1 <0>       0.0900
@<TRIPOS>BOND
   1    1    2 1
   2    1    7 1
   3    1    8 1
   4    1    9 1
   5    2    3 1
   6    2   10 1
   7    2   11 1
   8    3    4 1
   9    4    5 1
  10    4    6 2
  11    5   12 1
  12    5   13 1
  13    5   14 1
