@<TRIPOS>MOLECULE
ZINC000000058116
32    34    1     0     0
SMALL
USER_CHARGES
@<TRIPOS>ATOM
1      O1      0.0021   -0.0041    0.0020 O.2      1 ZINC000000058116   -0.4800
2      C2     -0.0144    1.2096    0.0087 C.2      1 ZINC000000058116    0.4100
3      C3     -1.3165    1.9899    0.0318 C.3      1 ZINC000000058116   -0.1900
4      C4     -1.1162    3.1798    0.9816 C.3      1 ZINC000000058116    0.1400
5      H5     -0.8935    2.8122    1.9833 H        1 ZINC000000058116    0.0800
6      C6     -2.3727    4.0109    1.0186 C.ar     1 ZINC000000058116   -0.0700
7      C7     -2.6375    4.9061   -0.0005 C.ar     1 ZINC000000058116   -0.0800
8      C8     -3.7889    5.6714    0.0290 C.ar     1 ZINC000000058116   -0.1300
9      C9     -4.6802    5.5413    1.0815 C.ar     1 ZINC000000058116    0.0800
10     O10    -5.8132    6.2929    1.1119 O.3      1 ZINC000000058116   -0.4900
11     C11    -4.4137    4.6394    2.1077 C.ar     1 ZINC000000058116    0.0800
12     O12    -5.2858    4.5078    3.1428 O.3      1 ZINC000000058116   -0.4900
13     C13    -3.2610    3.8721    2.0693 C.ar     1 ZINC000000058116   -0.1200
14     O14    -0.0293    3.9789    0.5148 O.3      1 ZINC000000058116   -0.3100
15     C15     1.1574    3.3779    0.2631 C.ar     1 ZINC000000058116    0.2200
16     C16     2.3232    4.1226    0.2665 C.ar     1 ZINC000000058116   -0.3000
17     C17     3.5430    3.5127    0.0014 C.ar     1 ZINC000000058116    0.3300
18     O18     4.6796    4.2536    0.0083 O.3      1 ZINC000000058116   -0.6900
19     C19     3.6111    2.1521   -0.2703 C.ar     1 ZINC000000058116   -0.3100
20     C20     2.4576    1.3878   -0.2759 C.ar     1 ZINC000000058116    0.2300
21     O21     2.5196    0.0595   -0.5418 O.3      1 ZINC000000058116   -0.5000
22     C22     1.2230    1.9976    0.0011 C.ar     1 ZINC000000058116   -0.4000
23     H23    -1.5513    2.3499   -0.9699 H        1 ZINC000000058116    0.1000
24     H24    -2.1234    1.3548    0.3975 H        1 ZINC000000058116    0.1000
25     H25    -1.9435    5.0085   -0.8217 H        1 ZINC000000058116    0.1400
26     H26    -3.9932    6.3707   -0.7682 H        1 ZINC000000058116    0.1400
27     H27    -6.5716    5.8787    0.6779 H        1 ZINC000000058116    0.3900
28     H28    -5.9687    3.8384    2.9991 H        1 ZINC000000058116    0.3900
29     H29    -3.0519    3.1716    2.8642 H        1 ZINC000000058116    0.1400
30     H30     2.2849    5.1815    0.4756 H        1 ZINC000000058116    0.1100
31     H31     4.5652    1.6903   -0.4771 H        1 ZINC000000058116    0.1100
32     H32     2.6442   -0.4931    0.2419 H        1 ZINC000000058116    0.3800
@<TRIPOS>BOND
1     1     2     2
2     2     22    1
3     2     3     1
4     3     4     1
5     3     23    1
6     3     24    1
7     4     5     1
8     4     6     1
9     4     14    1
10    6     13    ar
11    6     7     ar
12    7     8     ar
13    7     25    1
14    8     9     ar
15    8     26    1
16    9     10    1
17    9     11    ar
18    10    27    1
19    11    12    1
20    11    13    ar
21    12    28    1
22    13    29    1
23    14    15    1
24    15    22    ar
25    15    16    ar
26    16    17    ar
27    16    30    1
28    17    18    1
29    17    19    ar
30    19    20    ar
31    19    31    1
32    20    21    1
33    20    22    ar
34    21    32    1
@<TRIPOS>SUBSTRUCTURE
1   ZINC000000058116 1     RESIDUE    1   A     ZIN   1
