@<TRIPOS>MOLECULE
ZINC000003779261
50    51    1     0     0
SMALL
USER_CHARGES
@<TRIPOS>ATOM
1      C1     -0.0173    1.4248    0.0099 C.3      1 ZINC000003779261    0.0200
2      O2      0.0021   -0.0041    0.0020 O.3      1 ZINC000003779261   -0.3000
3      C3     -1.2011   -0.6379    0.0101 C.ar     1 ZINC000003779261    0.1600
4      C4     -2.3714    0.1004    0.0195 C.ar     1 ZINC000003779261   -0.2300
5      C5     -3.6058   -0.5505    0.0273 C.ar     1 ZINC000003779261    0.0300
6      C6     -4.8570    0.2357    0.0368 C.2      1 ZINC000003779261   -0.1100
7      C7     -6.0293   -0.3839    0.0442 C.2      1 ZINC000003779261   -0.1300
8      C8     -7.3053    0.4178    0.0539 C.3      1 ZINC000003779261    0.1000
9      O9     -8.2220   -0.1344   -0.8930 O.3      1 ZINC000003779261   -0.5700
10     C10    -3.6567   -1.9451    0.0257 C.ar     1 ZINC000003779261   -0.2300
11     C11    -2.4836   -2.6791    0.0163 C.ar     1 ZINC000003779261    0.1800
12     O12    -2.5326   -4.0382    0.0142 O.3      1 ZINC000003779261   -0.2800
13     C13    -3.8284   -4.6407    0.0221 C.3      1 ZINC000003779261    0.0300
14     C14    -1.2545   -2.0279    0.0031 C.ar     1 ZINC000003779261    0.0200
15     O15    -0.1025   -2.7517   -0.0065 O.3      1 ZINC000003779261   -0.2900
16     C16     0.4345   -3.0994   -1.2843 C.3      1 ZINC000003779261    0.2300
17     H17     0.5717   -2.1962   -1.8789 H        1 ZINC000003779261    0.0600
18     O18    -0.4677   -3.9803   -1.9568 O.3      1 ZINC000003779261   -0.3600
19     C19    -0.0369   -4.3717   -3.2619 C.3      1 ZINC000003779261    0.1100
20     H20     0.0942   -3.4852   -3.8825 H        1 ZINC000003779261    0.0800
21     C21    -1.0888   -5.2857   -3.8936 C.3      1 ZINC000003779261    0.0900
22     O22    -2.2969   -4.5508   -4.0990 O.3      1 ZINC000003779261   -0.5600
23     C23     1.2935   -5.1215   -3.1551 C.3      1 ZINC000003779261    0.0900
24     H24     1.1539   -6.0294   -2.5683 H        1 ZINC000003779261    0.0800
25     O25     1.7546   -5.4647   -4.4634 O.3      1 ZINC000003779261   -0.5500
26     C26     2.3244   -4.2211   -2.4675 C.3      1 ZINC000003779261    0.0900
27     H27     2.5011   -3.3362   -3.0789 H        1 ZINC000003779261    0.0800
28     O28     3.5489   -4.9382   -2.2993 O.3      1 ZINC000003779261   -0.5600
29     C29     1.7840   -3.7979   -1.0981 C.3      1 ZINC000003779261    0.0600
30     H30     1.6542   -4.6789   -0.4696 H        1 ZINC000003779261    0.0800
31     O31     2.7065   -2.9002   -0.4773 O.3      1 ZINC000003779261   -0.5600
32     H32     1.0053    1.8021    0.0021 H        1 ZINC000003779261    0.1000
33     H33    -0.5445    1.7859   -0.8732 H        1 ZINC000003779261    0.0600
34     H34    -0.5275    1.7763    0.9067 H        1 ZINC000003779261    0.0600
35     H35    -2.3296    1.1796    0.0211 H        1 ZINC000003779261    0.1400
36     H36    -4.8166    1.3149    0.0377 H        1 ZINC000003779261    0.1200
37     H37    -6.0696   -1.4632    0.0433 H        1 ZINC000003779261    0.1200
38     H38    -7.7475    0.3848    1.0496 H        1 ZINC000003779261    0.0600
39     H39    -7.0866    1.4519   -0.2124 H        1 ZINC000003779261    0.0600
40     H40    -9.0673    0.3328   -0.9406 H        1 ZINC000003779261    0.3800
41     H41    -4.6108   -2.4510    0.0321 H        1 ZINC000003779261    0.1400
42     H42    -3.7246   -5.7257    0.0195 H        1 ZINC000003779261    0.1000
43     H43    -4.3683   -4.3295    0.9164 H        1 ZINC000003779261    0.0500
44     H44    -4.3806   -4.3264   -0.8635 H        1 ZINC000003779261    0.0600
45     H45    -0.7211   -5.6553   -4.8509 H        1 ZINC000003779261    0.0700
46     H46    -1.2841   -6.1279   -3.2298 H        1 ZINC000003779261    0.0600
47     H47    -3.0096   -5.0689   -4.4975 H        1 ZINC000003779261    0.3800
48     H48     2.5950   -5.9430   -4.4713 H        1 ZINC000003779261    0.3900
49     H49     4.2481   -4.4272   -1.8691 H        1 ZINC000003779261    0.3900
50     H50     2.4275   -2.5909    0.3954 H        1 ZINC000003779261    0.4000
@<TRIPOS>BOND
1     1     2     1
2     1     32    1
3     1     33    1
4     1     34    1
5     2     3     1
6     3     14    ar
7     3     4     ar
8     4     5     ar
9     4     35    1
10    5     6     1
11    5     10    ar
12    6     7     2
13    6     36    1
14    7     8     1
15    7     37    1
16    8     9     1
17    8     38    1
18    8     39    1
19    9     40    1
20    10    11    ar
21    10    41    1
22    11    12    1
23    11    14    ar
24    12    13    1
25    13    42    1
26    13    43    1
27    13    44    1
28    14    15    1
29    15    16    1
30    16    17    1
31    16    29    1
32    16    18    1
33    18    19    1
34    19    20    1
35    19    21    1
36    19    23    1
37    21    22    1
38    21    45    1
39    21    46    1
40    22    47    1
41    23    24    1
42    23    25    1
43    23    26    1
44    25    48    1
45    26    27    1
46    26    28    1
47    26    29    1
48    28    49    1
49    29    30    1
50    29    31    1
51    31    50    1
@<TRIPOS>SUBSTRUCTURE
1   ZINC000003779261 1     RESIDUE    1   A     ZIN   1
