@<TRIPOS>MOLECULE
ZINC000000001021
  28   29    0    0    0
SMALL
USER_CHARGES
NO_NAME
@<TRIPOS>ATOM
    1 O1        0.0021    -0.0041     0.0020 O.2    1 <0>      -0.5000
    2 C2       -0.0144     1.2105     0.0087 C.2    1 <0>       0.5100
    3 O3        1.1429     1.8999     0.0013 O.3    1 <0>      -0.3500
    4 C4        2.3712     1.1257    -0.0145 C.3    1 <0>       0.1100
    5 C5        3.5538     2.0599    -0.0208 C.ar   1 <0>      -0.1000
    6 C6        4.0811     2.4992    -1.2207 C.ar   1 <0>      -0.0900
    7 C7        5.1658     3.3561    -1.2265 C.ar   1 <0>      -0.1200
    8 C8        5.7229     3.7741    -0.0323 C.ar   1 <0>      -0.1100
    9 C9        5.1949     3.3354     1.1676 C.ar   1 <0>      -0.1200
   10 C10       4.1075     2.4819     1.1734 C.ar   1 <0>      -0.0900
   11 C11      -1.3036     1.9317     0.0187 C.ar   1 <0>      -0.1300
   12 C12      -1.3262     3.3278     0.0207 C.ar   1 <0>      -0.0600
   13 C13      -2.5336     3.9948     0.0301 C.ar   1 <0>      -0.1300
   14 C14      -3.7205     3.2836     0.0376 C.ar   1 <0>      -0.0800
   15 C15      -3.7054     1.9000     0.0358 C.ar   1 <0>      -0.1300
   16 C16      -2.5051     1.2203     0.0206 C.ar   1 <0>      -0.0500
   17 H17       2.4131     0.4925     0.8717 H      1 <0>       0.0800
   18 H18       2.3961     0.5021    -0.9082 H      1 <0>       0.0800
   19 H19       3.6459     2.1727    -2.1537 H      1 <0>       0.1200
   20 H20       5.5783     3.6988    -2.1639 H      1 <0>       0.1300
   21 H21       6.5708     4.4430    -0.0368 H      1 <0>       0.1300
   22 H22       5.6303     3.6617     2.1005 H      1 <0>       0.1300
   23 H23       3.6950     2.1392     2.1108 H      1 <0>       0.1200
   24 H24      -0.4006     3.8841     0.0151 H      1 <0>       0.1400
   25 H25      -2.5526     5.0747     0.0319 H      1 <0>       0.1300
   26 H26      -4.6630     3.8109     0.0454 H      1 <0>       0.1300
   27 H27      -4.6354     1.3510     0.0417 H      1 <0>       0.1300
   28 H28      -2.4947     0.1403     0.0191 H      1 <0>       0.1400
@<TRIPOS>BOND
   1    1    2 2
   2    2    3 1
   3    2   11 1
   4    3    4 1
   5    4    5 1
   6    4   17 1
   7    4   18 1
   8    5   10 ar
   9    5    6 ar
  10    6    7 ar
  11    6   19 1
  12    7    8 ar
  13    7   20 1
  14    8    9 ar
  15    8   21 1
  16    9   10 ar
  17    9   22 1
  18   10   23 1
  19   11   16 ar
  20   11   12 ar
  21   12   13 ar
  22   12   24 1
  23   13   14 ar
  24   13   25 1
  25   14   15 ar
  26   14   26 1
  27   15   16 ar
  28   15   27 1
  29   16   28 1
