@<TRIPOS>MOLECULE
ZINC000000161231
  28   30    0    0    0
SMALL
USER_CHARGES
NO_NAME
@<TRIPOS>ATOM
    1 O1        0.0021    -0.0041     0.0020 O.2    1 <0>      -0.5200
    2 C2       -0.0144     1.2086     0.0087 C.2    1 <0>       0.5300
    3 C3       -1.3193     1.9638     0.0315 C.3    1 <0>       0.1100
    4 H4       -1.7021     2.0499     1.0485 H      1 <0>       0.1200
    5 C5       -2.3472     1.2679    -0.8909 C.3    1 <0>      -0.1100
    6 C6       -3.2847     2.4568    -1.2429 C.3    1 <0>      -0.1300
    7 C7       -2.3004     3.6428    -1.3608 C.3    1 <0>       0.1100
    8 N8       -1.1034     3.2962    -0.5682 N.am   1 <0>      -0.6200
    9 C9        0.0168     4.0349    -0.4246 C.2    1 <0>       0.5300
   10 O10       0.0554     5.1859    -0.8051 O.2    1 <0>      -0.5200
   11 C11       1.2189     3.3934     0.2211 C.3    1 <0>       0.1100
   12 H12       1.2700     3.6405     1.2815 H      1 <0>       0.1200
   13 C13       2.5079     3.8311    -0.5130 C.3    1 <0>      -0.1100
   14 C14       3.4557     2.6436    -0.1847 C.3    1 <0>      -0.1300
   15 C15       2.5036     1.4266    -0.2273 C.3    1 <0>       0.1100
   16 N16       1.1347     1.9160     0.0015 N.am   1 <0>      -0.6200
   17 H17      -1.8663     0.8695    -1.7843 H      1 <0>       0.0800
   18 H18      -2.8880     0.4865    -0.3569 H      1 <0>       0.1000
   19 H19      -3.7928     2.2806    -2.1910 H      1 <0>       0.0900
   20 H20      -4.0052     2.6305    -0.4436 H      1 <0>       0.0800
   21 H21      -2.0304     3.7990    -2.4052 H      1 <0>       0.0700
   22 H22      -2.7557     4.5453    -0.9530 H      1 <0>       0.0800
   23 H23       2.3393     3.9134    -1.5867 H      1 <0>       0.0800
   24 H24       2.8937     4.7654    -0.1054 H      1 <0>       0.1000
   25 H25       4.2352     2.5509    -0.9409 H      1 <0>       0.0900
   26 H26       3.8906     2.7594     0.8080 H      1 <0>       0.0800
   27 H27       2.5577     0.9467    -1.2045 H      1 <0>       0.0700
   28 H28       2.7738     0.7161     0.5539 H      1 <0>       0.0800
@<TRIPOS>BOND
   1    1    2 2
   2    2   16 am
   3    2    3 1
   4    3    4 1
   5    3    8 1
   6    3    5 1
   7    5    6 1
   8    5   17 1
   9    5   18 1
  10    6    7 1
  11    6   19 1
  12    6   20 1
  13    7    8 1
  14    7   21 1
  15    7   22 1
  16    8    9 am
  17    9   10 2
  18    9   11 1
  19   11   12 1
  20   11   16 1
  21   11   13 1
  22   13   14 1
  23   13   23 1
  24   13   24 1
  25   14   15 1
  26   14   25 1
  27   14   26 1
  28   15   16 1
  29   15   27 1
  30   15   28 1
