@<TRIPOS>MOLECULE
ZINC000000057754
  25   26    0    0    0
SMALL
USER_CHARGES
NO_NAME
@<TRIPOS>ATOM
    1 C1       -0.0173     1.4248     0.0099 C.3    1 <0>       0.0200
    2 O2        0.0021    -0.0041     0.0020 O.3    1 <0>      -0.3000
    3 C3       -1.1989    -0.6367     0.0101 C.ar   1 <0>       0.2300
    4 C4       -1.2457    -2.0268     0.0089 C.ar   1 <0>      -0.2700
    5 C5       -2.4614    -2.6818     0.0175 C.ar   1 <0>       0.2400
    6 O6       -2.5060    -4.0381     0.0167 O.3    1 <0>      -0.3000
    7 C7       -1.2548    -4.7283     0.0068 C.3    1 <0>       0.0200
    8 C8       -3.6529    -1.9351     0.0275 C.ar   1 <0>      -0.2300
    9 C9       -4.9142    -2.5835     0.0370 C.2    1 <0>       0.0300
   10 C10      -6.0409    -1.8246     0.0470 C.2    1 <0>      -0.2700
   11 C11      -5.9407    -0.4191     0.0477 C.2    1 <0>       0.5100
   12 O12      -6.9557     0.2543     0.0571 O.2    1 <0>      -0.4600
   13 O13      -4.7426     0.1902     0.0387 O.3    1 <0>      -0.2700
   14 C14      -3.5982    -0.5287     0.0287 C.ar   1 <0>       0.2300
   15 C15      -2.3682     0.1086     0.0253 C.ar   1 <0>      -0.2700
   16 H16       1.0053     1.8021     0.0021 H      1 <0>       0.1100
   17 H17      -0.5445     1.7859    -0.8732 H      1 <0>       0.0600
   18 H18      -0.5275     1.7763     0.9067 H      1 <0>       0.0600
   19 H19      -0.3279    -2.5961     0.0008 H      1 <0>       0.1500
   20 H20      -1.4330    -5.8037     0.0072 H      1 <0>       0.1100
   21 H21      -0.6952    -4.4532    -0.8872 H      1 <0>       0.0700
   22 H22      -0.6818    -4.4546     0.8927 H      1 <0>       0.0700
   23 H23      -4.9778    -3.6617     0.0360 H      1 <0>       0.1500
   24 H24      -7.0117    -2.2978     0.0539 H      1 <0>       0.1600
   25 H25      -2.3199     1.1875     0.0303 H      1 <0>       0.1500
@<TRIPOS>BOND
   1    1    2 1
   2    1   16 1
   3    1   17 1
   4    1   18 1
   5    2    3 1
   6    3   15 ar
   7    3    4 ar
   8    4    5 ar
   9    4   19 1
  10    5    6 1
  11    5    8 ar
  12    6    7 1
  13    7   20 1
  14    7   21 1
  15    7   22 1
  16    8   14 ar
  17    8    9 1
  18    9   10 2
  19    9   23 1
  20   10   11 1
  21   10   24 1
  22   11   12 2
  23   11   13 1
  24   13   14 1
  25   14   15 ar
  26   15   25 1
