@<TRIPOS>MOLECULE
ZINC000084154541
101   103   1     0     0
SMALL
USER_CHARGES
@<TRIPOS>ATOM
1      C1     -4.5033   -1.9095   -0.3841 C.2      1 ZINC000084154541   -0.1800
2      C2     -3.3677   -2.0689    0.2871 C.2      1 ZINC000084154541   -0.1200
3      C3     -2.9050   -1.0203    1.2094 C.2      1 ZINC000084154541   -0.0900
4      C4     -1.7230   -1.1341    1.8055 C.2      1 ZINC000084154541   -0.2000
5      C5     -3.7717    0.1829    1.4782 C.3      1 ZINC000084154541   -0.1000
6      C6     -3.3146    1.3476    0.5976 C.3      1 ZINC000084154541   -0.1700
7      C7     -4.3002    2.5096    0.7366 C.3      1 ZINC000084154541   -0.0400
8      C8     -5.5886    2.1710   -0.0160 C.3      1 ZINC000084154541   -0.1500
9      C9     -3.6827    3.7678    0.1345 C.3      1 ZINC000084154541   -0.0700
10     H10    -4.3953    4.5897    0.2032 H        1 ZINC000084154541    0.0800
11     C11    -3.3400    3.5132   -1.3347 C.3      1 ZINC000084154541   -0.1500
12     C12    -2.4086    4.1348    0.8960 C.3      1 ZINC000084154541    0.0700
13     H13    -1.6988    3.3099    0.8342 H        1 ZINC000084154541    0.1300
14     O14    -1.8288    5.3054    0.3166 O.3      1 ZINC000084154541   -0.3300
15     C15    -0.4872    5.4271    0.3940 C.2      1 ZINC000084154541    0.4900
16     O16     0.1715    4.5618    0.9391 O.2      1 ZINC000084154541   -0.5000
17     C17     0.1547    6.5634   -0.1599 C.2      1 ZINC000084154541   -0.2100
18     C18     1.4998    6.6854   -0.0823 C.2      1 ZINC000084154541    0.0000
19     C19     2.1621    7.8580   -0.6539 C.2      1 ZINC000084154541   -0.1600
20     C20     3.4889    7.9783   -0.5773 C.2      1 ZINC000084154541   -0.1000
21     C21     4.1712    9.1861   -1.1661 C.3      1 ZINC000084154541   -0.1000
22     C22     5.0249    9.8637   -0.0924 C.3      1 ZINC000084154541   -0.1200
23     C23     5.7176   11.0900   -0.6901 C.3      1 ZINC000084154541   -0.1200
24     C24     6.5713   11.7675    0.3836 C.3      1 ZINC000084154541   -0.1300
25     C25     7.2640   12.9938   -0.2142 C.3      1 ZINC000084154541   -0.1500
26     C26    -2.7448    4.4069    2.3598 C.3      1 ZINC000084154541    0.1000
27     H27    -3.4146    5.2647    2.4211 H        1 ZINC000084154541    0.1000
28     O28    -1.5219    4.7019    3.0849 O.3      1 ZINC000084154541   -0.3200
29     C29    -1.1427    5.9883    3.1423 C.2      1 ZINC000084154541    0.4500
30     C30     0.1160    6.3707    3.8775 C.3      1 ZINC000084154541   -0.1500
31     O31    -1.8105    6.8395    2.6045 O.2      1 ZINC000084154541   -0.5000
32     C32    -3.4193    3.1990    2.9876 C.3      1 ZINC000084154541   -0.0400
33     C33    -3.8500    3.5216    4.4103 C.2      1 ZINC000084154541   -0.1400
34     C34    -5.0296    3.9263    4.7561 C.2      1 ZINC000084154541   -0.0900
35     C35    -6.1562    4.0237    3.7735 C.3      1 ZINC000084154541    0.1200
36     H36    -6.5679    5.0320    3.8172 H        1 ZINC000084154541    0.1000
37     O37    -7.1931    3.0859    4.1656 O.3      1 ZINC000084154541   -0.3400
38     C38    -8.1405    3.5394    5.0014 C.2      1 ZINC000084154541    0.4600
39     C39    -9.2489    2.6233    5.4521 C.3      1 ZINC000084154541   -0.1500
40     O40    -8.1045    4.6820    5.3925 O.2      1 ZINC000084154541   -0.5100
41     C41    -5.7600    3.7279    2.3453 C.3      1 ZINC000084154541   -0.1200
42     C42    -4.6209    2.7230    2.2115 C.3      1 ZINC000084154541   -0.0600
43     H43    -4.9416    1.7734    2.6399 H        1 ZINC000084154541    0.1000
44     C44    -2.6630    3.1469    5.2649 C.3      1 ZINC000084154541    0.2900
45     H45    -2.2649    4.0348    5.7562 H        1 ZINC000084154541    0.1200
46     O46    -3.0610    2.1683    6.2610 O.3      1 ZINC000084154541   -0.3600
47     C47    -2.1733    1.8872    7.2279 C.2      1 ZINC000084154541    0.4600
48     C48    -2.5162    0.8814    8.2964 C.3      1 ZINC000084154541   -0.1500
49     O49    -1.0993    2.4407    7.2414 O.2      1 ZINC000084154541   -0.4900
50     O50    -1.6658    2.5822    4.3888 O.3      1 ZINC000084154541   -0.3300
51     C51    -2.3746    2.0874    3.2232 C.3      1 ZINC000084154541    0.2500
52     H52    -2.8605    1.1356    3.4379 H        1 ZINC000084154541    0.1100
53     O53    -1.4806    1.9654    2.0856 O.3      1 ZINC000084154541   -0.3100
54     C54    -0.2992    1.3655    2.3006 C.2      1 ZINC000084154541    0.4600
55     C55     0.6697    1.1792    1.1615 C.3      1 ZINC000084154541   -0.1500
56     O56    -0.0126    0.9747    3.4074 O.2      1 ZINC000084154541   -0.4800
57     H57    -4.8017   -2.6398   -1.1216 H        1 ZINC000084154541    0.1000
58     H58    -5.1302   -1.0520   -0.1888 H        1 ZINC000084154541    0.1000
59     H59    -2.7843   -2.9682    0.1556 H        1 ZINC000084154541    0.1100
60     H60    -1.3833   -0.3643    2.4826 H        1 ZINC000084154541    0.1000
61     H61    -1.1019   -1.9964    1.6129 H        1 ZINC000084154541    0.1000
62     H62    -4.8098   -0.0590    1.2506 H        1 ZINC000084154541    0.0800
63     H63    -3.6860    0.4653    2.5275 H        1 ZINC000084154541    0.0700
64     H64    -2.3227    1.6730    0.9115 H        1 ZINC000084154541    0.1400
65     H65    -3.2785    1.0243   -0.4427 H        1 ZINC000084154541    0.0700
66     H66    -6.0282    1.2667    0.4048 H        1 ZINC000084154541    0.0600
67     H67    -6.2936    2.9966    0.0808 H        1 ZINC000084154541    0.0600
68     H68    -5.3618    2.0084   -1.0696 H        1 ZINC000084154541    0.0700
69     H69    -4.2560    3.3214   -1.8935 H        1 ZINC000084154541    0.0700
70     H70    -2.8389    4.3886   -1.7479 H        1 ZINC000084154541    0.0600
71     H71    -2.6809    2.6483   -1.4095 H        1 ZINC000084154541    0.0600
72     H72    -0.4302    7.3317   -0.6439 H        1 ZINC000084154541    0.1400
73     H73     2.0847    5.9172    0.4016 H        1 ZINC000084154541    0.1300
74     H74     1.5773    8.6262   -1.1378 H        1 ZINC000084154541    0.1200
75     H75     4.0738    7.2101   -0.0934 H        1 ZINC000084154541    0.1200
76     H76     4.8081    8.8759   -1.9945 H        1 ZINC000084154541    0.0800
77     H77     3.4195    9.8873   -1.5287 H        1 ZINC000084154541    0.0700
78     H78     4.3880   10.1740    0.7360 H        1 ZINC000084154541    0.0600
79     H79     5.7766    9.1625    0.2702 H        1 ZINC000084154541    0.0700
80     H80     6.3545   10.7797   -1.5185 H        1 ZINC000084154541    0.0600
81     H81     4.9659   11.7911   -1.0527 H        1 ZINC000084154541    0.0600
82     H82     5.9344   12.0778    1.2120 H        1 ZINC000084154541    0.0600
83     H83     7.3230   11.0663    0.7462 H        1 ZINC000084154541    0.0600
84     H84     7.9009   12.6835   -1.0425 H        1 ZINC000084154541    0.0500
85     H85     6.5123   13.6950   -0.5767 H        1 ZINC000084154541    0.0500
86     H86     7.8722   13.4764    0.5508 H        1 ZINC000084154541    0.0500
87     H87     0.5798    5.4763    4.2934 H        1 ZINC000084154541    0.0900
88     H88     0.8086    6.8513    3.1865 H        1 ZINC000084154541    0.1000
89     H89    -0.1300    7.0612    4.6842 H        1 ZINC000084154541    0.1000
90     H90    -5.2074    4.2020    5.7851 H        1 ZINC000084154541    0.1300
91     H91    -8.9471    2.1093    6.3647 H        1 ZINC000084154541    0.1100
92     H92   -10.1481    3.2084    5.6450 H        1 ZINC000084154541    0.1000
93     H93    -9.4533    1.8894    4.6725 H        1 ZINC000084154541    0.1000
94     H94    -6.6304    3.3383    1.8173 H        1 ZINC000084154541    0.1000
95     H95    -5.4579    4.6605    1.8687 H        1 ZINC000084154541    0.0900
96     H96    -2.2046   -0.1120    7.9738 H        1 ZINC000084154541    0.1100
97     H97    -1.9995    1.1422    9.2201 H        1 ZINC000084154541    0.1000
98     H98    -3.5926    0.8867    8.4683 H        1 ZINC000084154541    0.0900
99     H99     0.2797    1.6688    0.2691 H        1 ZINC000084154541    0.0900
100    H100    1.6310    1.6193    1.4265 H        1 ZINC000084154541    0.1100
101    H101    0.7991    0.1150    0.9649 H        1 ZINC000084154541    0.1000
@<TRIPOS>BOND
1     1     2     2
2     1     57    1
3     1     58    1
4     2     3     1
5     2     59    1
6     3     4     2
7     3     5     1
8     4     60    1
9     4     61    1
10    5     6     1
11    5     62    1
12    5     63    1
13    6     7     1
14    6     64    1
15    6     65    1
16    7     42    1
17    7     8     1
18    7     9     1
19    8     66    1
20    8     67    1
21    8     68    1
22    9     10    1
23    9     11    1
24    9     12    1
25    11    69    1
26    11    70    1
27    11    71    1
28    12    13    1
29    12    14    1
30    12    26    1
31    14    15    1
32    15    16    2
33    15    17    1
34    17    18    2
35    17    72    1
36    18    19    1
37    18    73    1
38    19    20    2
39    19    74    1
40    20    21    1
41    20    75    1
42    21    22    1
43    21    76    1
44    21    77    1
45    22    23    1
46    22    78    1
47    22    79    1
48    23    24    1
49    23    80    1
50    23    81    1
51    24    25    1
52    24    82    1
53    24    83    1
54    25    84    1
55    25    85    1
56    25    86    1
57    26    27    1
58    26    28    1
59    26    32    1
60    28    29    1
61    29    30    1
62    29    31    2
63    30    87    1
64    30    88    1
65    30    89    1
66    32    42    1
67    32    51    1
68    32    33    1
69    33    34    2
70    33    44    1
71    34    35    1
72    34    90    1
73    35    36    1
74    35    37    1
75    35    41    1
76    37    38    1
77    38    39    1
78    38    40    2
79    39    91    1
80    39    92    1
81    39    93    1
82    41    42    1
83    41    94    1
84    41    95    1
85    42    43    1
86    44    45    1
87    44    46    1
88    44    50    1
89    46    47    1
90    47    48    1
91    47    49    2
92    48    96    1
93    48    97    1
94    48    98    1
95    50    51    1
96    51    52    1
97    51    53    1
98    53    54    1
99    54    55    1
100   54    56    2
101   55    99    1
102   55    100   1
103   55    101   1
@<TRIPOS>SUBSTRUCTURE
1   ZINC000084154541 1     RESIDUE    1   A     ZIN   1
