@<TRIPOS>MOLECULE
ZINC000000039811
  19   19    0    0    0
SMALL
USER_CHARGES
NO_NAME
@<TRIPOS>ATOM
    1 O1        0.0021    -0.0041     0.0020 O.co2  1 <0>      -0.6900
    2 C2       -0.0145     1.2211     0.0088 C.2    1 <0>       0.5000
    3 O3        1.0381     1.8481     0.0021 O.co2  1 <0>      -0.7000
    4 C4       -1.2482     1.9111     0.0184 C.2    1 <0>      -0.1600
    5 C5       -2.4109     1.2186     0.0201 C.2    1 <0>      -0.1200
    6 C6       -3.6925     1.9355     0.0301 C.ar   1 <0>      -0.0400
    7 C7       -3.7144     3.3359     0.0320 C.ar   1 <0>      -0.1100
    8 C8       -4.9182     4.0027     0.0414 C.ar   1 <0>      -0.1400
    9 C9       -6.1114     3.2886     0.0495 C.ar   1 <0>       0.0800
   10 O10      -7.2958     3.9511     0.0592 O.3    1 <0>      -0.5000
   11 C11      -6.0954     1.8981     0.0471 C.ar   1 <0>      -0.1400
   12 C12      -4.8972     1.2213     0.0319 C.ar   1 <0>      -0.1000
   13 H13      -1.2628     2.9910     0.0243 H      1 <0>       0.1000
   14 H14      -2.3962     0.1387     0.0142 H      1 <0>       0.1300
   15 H15      -2.7883     3.8914     0.0265 H      1 <0>       0.1300
   16 H16      -4.9363     5.0826     0.0429 H      1 <0>       0.1300
   17 H17      -7.6456     4.1443    -0.8214 H      1 <0>       0.3800
   18 H18      -7.0250     1.3484     0.0534 H      1 <0>       0.1200
   19 H19      -4.8859     0.1414     0.0301 H      1 <0>       0.1300
@<TRIPOS>BOND
   1    1    2 ar
   2    2    3 ar
   3    2    4 1
   4    4    5 2
   5    4   13 1
   6    5    6 1
   7    5   14 1
   8    6   12 ar
   9    6    7 ar
  10    7    8 ar
  11    7   15 1
  12    8    9 ar
  13    8   16 1
  14    9   10 1
  15    9   11 ar
  16   10   17 1
  17   11   12 ar
  18   11   18 1
  19   12   19 1
