@<TRIPOS>MOLECULE
ZINC000000031962
41    43    1     0     0
SMALL
USER_CHARGES
@<TRIPOS>ATOM
1      C1     -0.0033    1.5720    0.0513 C.3      1 ZINC000000031962   -0.1600
2      C2      0.0002    0.0426    0.0117 C.3      1 ZINC000000031962   -0.0200
3      C3      0.5786   -0.4335   -1.3240 C.3      1 ZINC000000031962   -0.1000
4      C4      2.0321    0.0221   -1.4533 C.3      1 ZINC000000031962   -0.1300
5      C5      2.8532   -0.5909   -0.3157 C.3      1 ZINC000000031962   -0.0900
6      C6      2.2993   -0.0966    1.0217 C.3      1 ZINC000000031962   -0.1200
7      C7      2.4139    1.4278    1.0857 C.3      1 ZINC000000031962   -0.1300
8      C8      3.0952   -0.7050    2.1475 C.2      1 ZINC000000031962    0.5100
9      O9      4.0736   -1.3897    1.9018 O.co2    1 ZINC000000031962   -0.7000
10     O10     2.7607   -0.5125    3.3040 O.co2    1 ZINC000000031962   -0.7000
11     C11     0.8405   -0.4954    1.1652 C.3      1 ZINC000000031962   -0.0400
12     H12     0.4512   -0.0826    2.0959 H        1 ZINC000000031962    0.0700
13     C13     0.6961   -2.0178    1.1997 C.3      1 ZINC000000031962   -0.1200
14     C14    -0.7214   -2.3529    1.6619 C.3      1 ZINC000000031962   -0.0800
15     C15    -1.7399   -1.5677    0.8773 C.ar     1 ZINC000000031962   -0.0700
16     C16    -3.0607   -1.9976    0.9275 C.ar     1 ZINC000000031962   -0.1100
17     C17    -4.0461   -1.3221    0.2397 C.ar     1 ZINC000000031962   -0.1500
18     C18    -3.7189   -0.2017   -0.5100 C.ar     1 ZINC000000031962    0.0900
19     O19    -4.6842    0.4728   -1.1883 O.3      1 ZINC000000031962   -0.5000
20     C20    -2.4024    0.2255   -0.5625 C.ar     1 ZINC000000031962   -0.1400
21     C21    -1.4158   -0.4687    0.1325 C.ar     1 ZINC000000031962   -0.0400
22     H22     0.8786    1.9509   -0.4653 H        1 ZINC000000031962    0.0800
23     H23    -0.9012    1.9463   -0.4404 H        1 ZINC000000031962    0.0500
24     H24     0.0103    1.9087    1.0880 H        1 ZINC000000031962    0.0600
25     H25     0.5347   -1.5217   -1.3702 H        1 ZINC000000031962    0.0600
26     H26    -0.0066   -0.0138   -2.1422 H        1 ZINC000000031962    0.0500
27     H27     2.4336   -0.3082   -2.4113 H        1 ZINC000000031962    0.0500
28     H28     2.0799    1.1093   -1.3924 H        1 ZINC000000031962    0.0600
29     H29     2.7832   -1.6777   -0.3600 H        1 ZINC000000031962    0.0600
30     H30     3.8954   -0.2870   -0.4134 H        1 ZINC000000031962    0.0600
31     H31     2.2551    1.8461    0.0918 H        1 ZINC000000031962    0.0600
32     H32     1.6613    1.8203    1.7696 H        1 ZINC000000031962    0.0500
33     H33     3.4068    1.7029    1.4414 H        1 ZINC000000031962    0.0400
34     H34     0.8639   -2.4257    0.2030 H        1 ZINC000000031962    0.0600
35     H35     1.4197   -2.4400    1.8970 H        1 ZINC000000031962    0.0800
36     H36    -0.9026   -3.4183    1.5195 H        1 ZINC000000031962    0.0700
37     H37    -0.8201   -2.1114    2.7203 H        1 ZINC000000031962    0.0800
38     H38    -3.3175   -2.8691    1.5113 H        1 ZINC000000031962    0.1200
39     H39    -5.0695   -1.6643    0.2840 H        1 ZINC000000031962    0.1200
40     H40    -5.1014    1.1807   -0.6785 H        1 ZINC000000031962    0.3800
41     H41    -2.1442    1.0976   -1.1450 H        1 ZINC000000031962    0.1300
@<TRIPOS>BOND
1     1     2     1
2     1     22    1
3     1     23    1
4     1     24    1
5     2     11    1
6     2     21    1
7     2     3     1
8     3     4     1
9     3     25    1
10    3     26    1
11    4     5     1
12    4     27    1
13    4     28    1
14    5     6     1
15    5     29    1
16    5     30    1
17    6     7     1
18    6     8     1
19    6     11    1
20    7     31    1
21    7     32    1
22    7     33    1
23    8     9     ar
24    8     10    ar
25    11    12    1
26    11    13    1
27    13    14    1
28    13    34    1
29    13    35    1
30    14    15    1
31    14    36    1
32    14    37    1
33    15    21    ar
34    15    16    ar
35    16    17    ar
36    16    38    1
37    17    18    ar
38    17    39    1
39    18    19    1
40    18    20    ar
41    19    40    1
42    20    21    ar
43    20    41    1
@<TRIPOS>SUBSTRUCTURE
1   ZINC000000031962 1     RESIDUE    1   A     ZIN   1
