@<TRIPOS>MOLECULE
ZINC000084154118
98    103   1     0     0
SMALL
USER_CHARGES
@<TRIPOS>ATOM
1      C1     -2.6247   -1.2287    0.7563 C.3      1 ZINC000084154118   -0.1400
2      C2     -2.2903   -2.6326    1.2854 C.3      1 ZINC000084154118   -0.0600
3      C3     -3.4825   -3.1382    2.1001 C.3      1 ZINC000084154118   -0.1400
4      C4     -2.0401   -3.5532    0.0986 C.3      1 ZINC000084154118   -0.1000
5      C5     -1.5336   -4.9217    0.5390 C.3      1 ZINC000084154118   -0.0800
6      C6     -0.2707   -4.7809    1.3868 C.3      1 ZINC000084154118   -0.1200
7      C7      0.8246   -4.1618    0.5593 C.2      1 ZINC000084154118    0.5100
8      O8      0.6142   -3.8605   -0.6032 O.co2    1 ZINC000084154118   -0.7000
9      O9      1.9219   -3.9618    1.0519 O.co2    1 ZINC000084154118   -0.6800
10     C10     0.1905   -6.1506    1.8768 C.3      1 ZINC000084154118   -0.0900
11     C11     1.4500   -6.0695    2.7376 C.3      1 ZINC000084154118   -0.0900
12     C12     1.3005   -5.1060    3.9172 C.3      1 ZINC000084154118    0.0100
13     C13     0.2675   -5.7295    4.8606 C.3      1 ZINC000084154118   -0.1500
14     C14     0.7095   -3.8206    3.4080 C.2      1 ZINC000084154118   -0.0500
15     C15     1.2274   -2.6500    3.6058 C.2      1 ZINC000084154118   -0.1700
16     C16     2.4944   -2.4773    4.3889 C.3      1 ZINC000084154118   -0.0800
17     C17     3.3857   -3.7192    4.2125 C.3      1 ZINC000084154118   -0.0600
18     H18     3.6176   -3.8257    3.1442 H        1 ZINC000084154118    0.0900
19     C19     4.6865   -3.4223    4.9618 C.3      1 ZINC000084154118   -0.0300
20     C20     5.7756   -4.4506    4.5540 C.3      1 ZINC000084154118   -0.1600
21     C21     5.2470   -2.1093    4.4088 C.3      1 ZINC000084154118   -0.1500
22     C22     5.3006   -0.9544    5.3833 C.3      1 ZINC000084154118    0.1000
23     H23     6.2370   -0.9802    5.9463 H        1 ZINC000084154118    0.0600
24     O24     5.2654    0.2831    4.6534 O.3      1 ZINC000084154118   -0.5600
25     C25     4.1138   -0.9880    6.3366 C.3      1 ZINC000084154118    0.1000
26     H26     3.1796   -0.9850    5.7821 H        1 ZINC000084154118    0.1100
27     O27     4.1421    0.1814    7.1673 O.3      1 ZINC000084154118   -0.3500
28     C28     3.4882    1.2710    6.7137 C.2      1 ZINC000084154118    0.5000
29     O29     2.9099    1.2319    5.6441 O.2      1 ZINC000084154118   -0.4900
30     C30     3.4751    2.4615    7.4835 C.2      1 ZINC000084154118   -0.1900
31     C31     2.8204    3.5524    7.0294 C.2      1 ZINC000084154118   -0.0100
32     C32     2.8068    4.7864    7.8274 C.ar     1 ZINC000084154118   -0.0900
33     C33     3.4763    4.8358    9.0558 C.ar     1 ZINC000084154118   -0.0800
34     C34     3.4609    5.9943    9.7992 C.ar     1 ZINC000084154118   -0.1500
35     C35     2.7815    7.1138    9.3321 C.ar     1 ZINC000084154118    0.1200
36     O36     2.7693    8.2536   10.0690 O.3      1 ZINC000084154118   -0.5000
37     C37     2.1150    7.0700    8.1128 C.ar     1 ZINC000084154118   -0.1500
38     C38     2.1291    5.9183    7.3590 C.ar     1 ZINC000084154118   -0.0700
39     C39     4.2084   -2.2288    7.2231 C.3      1 ZINC000084154118   -0.0400
40     C40     5.3358   -1.9763    8.2524 C.3      1 ZINC000084154118   -0.1400
41     C41     2.9059   -2.3400    8.0242 C.3      1 ZINC000084154118   -0.1500
42     C42     4.5435   -3.4856    6.4578 C.3      1 ZINC000084154118   -0.0500
43     H43     5.5992   -3.7348    6.8168 H        1 ZINC000084154118    0.0500
44     C44     3.7369   -4.6954    6.9115 C.3      1 ZINC000084154118   -0.1100
45     C45     2.4027   -4.8471    6.1895 C.3      1 ZINC000084154118   -0.1100
46     C46     2.6126   -4.9434    4.6772 C.3      1 ZINC000084154118   -0.0200
47     C47     3.4134   -6.2314    4.4238 C.3      1 ZINC000084154118   -0.1500
48     C48    -0.5808   -3.9109    2.6063 C.3      1 ZINC000084154118   -0.0200
49     H49    -1.3508   -4.3945    3.2128 H        1 ZINC000084154118    0.0600
50     C50    -1.0521   -2.5323    2.1749 C.3      1 ZINC000084154118   -0.0900
51     H51    -1.7819   -0.8475    0.1797 H        1 ZINC000084154118    0.0500
52     H52    -3.5071   -1.2814    0.1186 H        1 ZINC000084154118    0.0500
53     H53    -2.8221   -0.5617    1.5955 H        1 ZINC000084154118    0.0500
54     H54    -4.3661   -3.1804    1.4633 H        1 ZINC000084154118    0.0500
55     H55    -3.2637   -4.1345    2.4844 H        1 ZINC000084154118    0.0500
56     H56    -3.6671   -2.4599    2.9332 H        1 ZINC000084154118    0.0500
57     H57    -2.9855   -3.6860   -0.4469 H        1 ZINC000084154118    0.0300
58     H58    -1.3314   -3.0856   -0.5880 H        1 ZINC000084154118    0.0900
59     H59    -2.3003   -5.4442    1.1128 H        1 ZINC000084154118    0.0300
60     H60    -1.2981   -5.5238   -0.3476 H        1 ZINC000084154118    0.0500
61     H61    -0.6173   -6.6272    2.4343 H        1 ZINC000084154118    0.0400
62     H62     0.4055   -6.7770    1.0006 H        1 ZINC000084154118    0.0400
63     H63     1.6086   -7.0926    3.1138 H        1 ZINC000084154118    0.0400
64     H64     2.2963   -5.7761    2.1201 H        1 ZINC000084154118    0.0900
65     H65     0.6233   -6.7037    5.1962 H        1 ZINC000084154118    0.0500
66     H66     0.1234   -5.0786    5.7229 H        1 ZINC000084154118    0.0500
67     H67    -0.6792   -5.8501    4.3341 H        1 ZINC000084154118    0.0500
68     H68     0.7534   -1.7716    3.1972 H        1 ZINC000084154118    0.1000
69     H69     3.0179   -1.5897    4.0418 H        1 ZINC000084154118    0.0700
70     H70     2.2356   -2.3746    5.4452 H        1 ZINC000084154118    0.0600
71     H71     5.8376   -4.5022    3.4670 H        1 ZINC000084154118    0.0600
72     H72     6.7387   -4.1394    4.9585 H        1 ZINC000084154118    0.0500
73     H73     5.5151   -5.4321    4.9501 H        1 ZINC000084154118    0.0700
74     H74     6.2729   -2.3137    4.0520 H        1 ZINC000084154118    0.0600
75     H75     4.6749   -1.8241    3.5183 H        1 ZINC000084154118    0.0900
76     H76     5.9994    0.3954    4.0340 H        1 ZINC000084154118    0.3700
77     H77     3.9885    2.4962    8.4331 H        1 ZINC000084154118    0.1400
78     H78     2.3070    3.5177    6.0798 H        1 ZINC000084154118    0.1400
79     H79     4.0038    3.9665    9.4198 H        1 ZINC000084154118    0.1400
80     H80     3.9771    6.0335   10.7470 H        1 ZINC000084154118    0.1300
81     H81     3.4986    8.8573    9.8717 H        1 ZINC000084154118    0.3900
82     H82     1.5884    7.9423    7.7547 H        1 ZINC000084154118    0.1300
83     H83     1.6110    5.8853    6.4120 H        1 ZINC000084154118    0.1400
84     H84     5.0923   -1.0978    8.8499 H        1 ZINC000084154118    0.0600
85     H85     5.4330   -2.8440    8.9050 H        1 ZINC000084154118    0.0500
86     H86     6.2764   -1.8094    7.7275 H        1 ZINC000084154118    0.0500
87     H87     2.0639   -2.4313    7.3380 H        1 ZINC000084154118    0.0600
88     H88     2.9483   -3.2198    8.6663 H        1 ZINC000084154118    0.0600
89     H89     2.7794   -1.4481    8.6378 H        1 ZINC000084154118    0.0600
90     H90     4.3429   -5.6007    6.7385 H        1 ZINC000084154118    0.0600
91     H91     3.5785   -4.6911    7.9944 H        1 ZINC000084154118    0.0600
92     H92     1.9752   -5.7927    6.5635 H        1 ZINC000084154118    0.0500
93     H93     1.7311   -4.0330    6.4272 H        1 ZINC000084154118    0.0700
94     H94     2.7625   -7.0957    4.5556 H        1 ZINC000084154118    0.0500
95     H95     3.8037   -6.2223    3.4062 H        1 ZINC000084154118    0.0600
96     H96     4.2415   -6.2891    5.1302 H        1 ZINC000084154118    0.0600
97     H97    -0.2617   -1.9990    1.6426 H        1 ZINC000084154118    0.0700
98     H98    -1.3088   -1.9466    3.0698 H        1 ZINC000084154118    0.0400
@<TRIPOS>BOND
1     1     2     1
2     1     51    1
3     1     52    1
4     1     53    1
5     2     50    1
6     2     3     1
7     2     4     1
8     3     54    1
9     3     55    1
10    3     56    1
11    4     5     1
12    4     57    1
13    4     58    1
14    5     6     1
15    5     59    1
16    5     60    1
17    6     48    1
18    6     7     1
19    6     10    1
20    7     8     ar
21    7     9     ar
22    10    11    1
23    10    61    1
24    10    62    1
25    11    12    1
26    11    63    1
27    11    64    1
28    12    46    1
29    12    13    1
30    12    14    1
31    13    65    1
32    13    66    1
33    13    67    1
34    14    15    2
35    14    48    1
36    15    16    1
37    15    68    1
38    16    17    1
39    16    69    1
40    16    70    1
41    17    18    1
42    17    46    1
43    17    19    1
44    19    42    1
45    19    20    1
46    19    21    1
47    20    71    1
48    20    72    1
49    20    73    1
50    21    22    1
51    21    74    1
52    21    75    1
53    22    23    1
54    22    24    1
55    22    25    1
56    24    76    1
57    25    26    1
58    25    27    1
59    25    39    1
60    27    28    1
61    28    29    2
62    28    30    1
63    30    31    2
64    30    77    1
65    31    32    1
66    31    78    1
67    32    38    ar
68    32    33    ar
69    33    34    ar
70    33    79    1
71    34    35    ar
72    34    80    1
73    35    36    1
74    35    37    ar
75    36    81    1
76    37    38    ar
77    37    82    1
78    38    83    1
79    39    40    1
80    39    41    1
81    39    42    1
82    40    84    1
83    40    85    1
84    40    86    1
85    41    87    1
86    41    88    1
87    41    89    1
88    42    43    1
89    42    44    1
90    44    45    1
91    44    90    1
92    44    91    1
93    45    46    1
94    45    92    1
95    45    93    1
96    46    47    1
97    47    94    1
98    47    95    1
99    47    96    1
100   48    49    1
101   48    50    1
102   50    97    1
103   50    98    1
@<TRIPOS>SUBSTRUCTURE
1   ZINC000084154118 1     RESIDUE    1   A     ZIN   1
