@<TRIPOS>MOLECULE
ZINC000000154564
  20   20    0    0    0
SMALL
USER_CHARGES
NO_NAME
@<TRIPOS>ATOM
    1 O1        0.0021    -0.0041     0.0020 O.co2  1 <0>      -0.7000
    2 C2       -0.0145     1.2150     0.0087 C.2    1 <0>       0.4900
    3 O3        1.0330     1.8389     0.0021 O.co2  1 <0>      -0.7100
    4 C4       -1.3296     1.9507     0.0190 C.3    1 <0>      -0.1800
    5 C5       -2.4790     0.9408     0.0189 C.3    1 <0>      -0.0600
    6 C6       -3.7941     1.6764     0.0292 C.ar   1 <0>      -0.0600
    7 C7       -4.3889     2.0123     1.2310 C.ar   1 <0>      -0.1200
    8 C8       -5.5953     2.6872     1.2404 C.ar   1 <0>      -0.1200
    9 C9       -6.2067     3.0265     0.0479 C.ar   1 <0>      -0.1400
   10 C10      -5.6115     2.6914    -1.1539 C.ar   1 <0>      -0.1200
   11 C11      -4.4030     2.0204    -1.1633 C.ar   1 <0>      -0.1200
   12 H12      -1.3917     2.5717     0.9126 H      1 <0>       0.0600
   13 H13      -1.4001     2.5813    -0.8673 H      1 <0>       0.0600
   14 H14      -2.4169     0.3198    -0.8748 H      1 <0>       0.0700
   15 H15      -2.4085     0.3101     0.9052 H      1 <0>       0.0700
   16 H16      -3.9112     1.7472     2.1626 H      1 <0>       0.1200
   17 H17      -6.0603     2.9490     2.1793 H      1 <0>       0.1200
   18 H18      -7.1496     3.5531     0.0553 H      1 <0>       0.1100
   19 H19      -6.0894     2.9562    -2.0855 H      1 <0>       0.1200
   20 H20      -3.9380     1.7586    -2.1022 H      1 <0>       0.1200
@<TRIPOS>BOND
   1    1    2 ar
   2    2    3 ar
   3    2    4 1
   4    4    5 1
   5    4   12 1
   6    4   13 1
   7    5    6 1
   8    5   14 1
   9    5   15 1
  10    6   11 ar
  11    6    7 ar
  12    7    8 ar
  13    7   16 1
  14    8    9 ar
  15    8   17 1
  16    9   10 ar
  17    9   18 1
  18   10   11 ar
  19   10   19 1
  20   11   20 1
