@<TRIPOS>MOLECULE
ZINC000000073693
30    32    1     0     0
SMALL
USER_CHARGES
@<TRIPOS>ATOM
1      O1      0.0021   -0.0041    0.0020 O.2      1 ZINC000000073693   -0.4800
2      C2     -0.0144    1.2096    0.0087 C.2      1 ZINC000000073693    0.4000
3      C3     -1.3165    1.9899    0.0318 C.3      1 ZINC000000073693   -0.1900
4      C4     -1.1433    3.1905   -0.9100 C.3      1 ZINC000000073693    0.1400
5      H5     -0.9495    2.8342   -1.9217 H        1 ZINC000000073693    0.0800
6      C6     -2.4002    4.0218   -0.9015 C.ar     1 ZINC000000073693   -0.0800
7      C7     -2.5840    4.9870    0.0708 C.ar     1 ZINC000000073693   -0.0900
8      C8     -3.7370    5.7496    0.0785 C.ar     1 ZINC000000073693   -0.1200
9      C9     -4.7060    5.5471   -0.8863 C.ar     1 ZINC000000073693   -0.1200
10     C10    -4.5218    4.5825   -1.8592 C.ar     1 ZINC000000073693   -0.1200
11     C11    -3.3669    3.8229   -1.8695 C.ar     1 ZINC000000073693   -0.1100
12     O12    -0.0433    3.9844   -0.4655 O.3      1 ZINC000000073693   -0.3100
13     C13     1.1500    3.3808   -0.2547 C.ar     1 ZINC000000073693    0.2200
14     C14     2.3153    4.1257   -0.2832 C.ar     1 ZINC000000073693   -0.3000
15     C15     3.5422    3.5129   -0.0609 C.ar     1 ZINC000000073693    0.3300
16     O16     4.6783    4.2539   -0.0930 O.3      1 ZINC000000073693   -0.7000
17     C17     3.6178    2.1494    0.1942 C.ar     1 ZINC000000073693   -0.3100
18     C18     2.4647    1.3851    0.2251 C.ar     1 ZINC000000073693    0.2300
19     O19     2.5339    0.0542    0.4758 O.3      1 ZINC000000073693   -0.4900
20     C20     1.2230    1.9976    0.0011 C.ar     1 ZINC000000073693   -0.4000
21     H21    -2.1336    1.3588   -0.3178 H        1 ZINC000000073693    0.1000
22     H22    -1.5224    2.3386    1.0437 H        1 ZINC000000073693    0.1000
23     H23    -1.8269    5.1452    0.8246 H        1 ZINC000000073693    0.1300
24     H24    -3.8809    6.5032    0.8386 H        1 ZINC000000073693    0.1200
25     H25    -5.6071    6.1424   -0.8799 H        1 ZINC000000073693    0.1200
26     H26    -5.2791    4.4241   -2.6128 H        1 ZINC000000073693    0.1200
27     H27    -3.2230    3.0693   -2.6295 H        1 ZINC000000073693    0.1200
28     H28     2.2712    5.1868   -0.4791 H        1 ZINC000000073693    0.1100
29     H29     4.5774    1.6855    0.3682 H        1 ZINC000000073693    0.1100
30     H30     2.4720   -0.1731    1.4137 H        1 ZINC000000073693    0.3800
@<TRIPOS>BOND
1     1     2     2
2     2     20    1
3     2     3     1
4     3     4     1
5     3     21    1
6     3     22    1
7     4     5     1
8     4     6     1
9     4     12    1
10    6     11    ar
11    6     7     ar
12    7     8     ar
13    7     23    1
14    8     9     ar
15    8     24    1
16    9     10    ar
17    9     25    1
18    10    11    ar
19    10    26    1
20    11    27    1
21    12    13    1
22    13    20    ar
23    13    14    ar
24    14    15    ar
25    14    28    1
26    15    16    1
27    15    17    ar
28    17    18    ar
29    17    29    1
30    18    19    1
31    18    20    ar
32    19    30    1
@<TRIPOS>SUBSTRUCTURE
1   ZINC000000073693 1     RESIDUE    1   A     ZIN   1
