@<TRIPOS>MOLECULE
ZINC000084153880
100   102   1     0     0
SMALL
USER_CHARGES
@<TRIPOS>ATOM
1      C1      3.1777   -2.2876    2.6065 C.2      1 ZINC000084153880   -0.1800
2      C2      2.1576   -2.4631    1.7734 C.2      1 ZINC000084153880   -0.1300
3      C3      1.1339   -3.4780    2.0674 C.2      1 ZINC000084153880   -0.1100
4      C4      1.3014   -4.3965    3.2503 C.3      1 ZINC000084153880   -0.1200
5      C5      0.0617   -3.5848    1.2900 C.2      1 ZINC000084153880   -0.1400
6      C6     -0.0398   -2.7649    0.0296 C.3      1 ZINC000084153880   -0.1100
7      C7     -0.3201   -3.6879   -1.1580 C.3      1 ZINC000084153880   -0.0400
8      C8      0.7700   -4.7589   -1.2329 C.3      1 ZINC000084153880   -0.1400
9      C9     -0.3090   -2.8691   -2.4451 C.3      1 ZINC000084153880   -0.0800
10     H10    -0.4765   -3.5293   -3.2961 H        1 ZINC000084153880    0.0900
11     C11     1.0477   -2.1782   -2.5967 C.3      1 ZINC000084153880   -0.1500
12     C12    -1.4132   -1.8126   -2.3963 C.3      1 ZINC000084153880    0.0800
13     H13    -1.2504   -1.1570   -1.5409 H        1 ZINC000084153880    0.1000
14     O14    -1.3859   -1.0284   -3.6181 O.3      1 ZINC000084153880   -0.3400
15     C15    -1.7949    0.2472   -3.5327 C.2      1 ZINC000084153880    0.4500
16     O16    -2.1635    0.6938   -2.4722 O.2      1 ZINC000084153880   -0.4900
17     C17    -1.7943    1.1224   -4.7595 C.3      1 ZINC000084153880   -0.1200
18     C18    -2.3020    2.5178   -4.3908 C.3      1 ZINC000084153880   -0.1100
19     C19    -2.3014    3.4064   -5.6363 C.3      1 ZINC000084153880   -0.1200
20     C20    -2.8090    4.8018   -5.2676 C.3      1 ZINC000084153880   -0.1200
21     C21    -2.8084    5.6903   -6.5132 C.3      1 ZINC000084153880   -0.1200
22     C22    -3.3161    7.0857   -6.1444 C.3      1 ZINC000084153880   -0.1200
23     C23    -3.3155    7.9743   -7.3900 C.3      1 ZINC000084153880   -0.1200
24     C24    -3.8232    9.3697   -7.0212 C.3      1 ZINC000084153880   -0.1300
25     C25    -3.8226   10.2582   -8.2668 C.3      1 ZINC000084153880   -0.1500
26     C26    -2.7720   -2.4948   -2.2621 C.3      1 ZINC000084153880    0.0900
27     H27    -2.9539   -3.1098   -3.1434 H        1 ZINC000084153880    0.1100
28     O28    -3.8081   -1.4824   -2.1629 O.3      1 ZINC000084153880   -0.3200
29     C29    -4.3593   -1.0600   -3.3116 C.2      1 ZINC000084153880    0.4500
30     C30    -5.4408   -0.0108   -3.2873 C.3      1 ZINC000084153880   -0.1500
31     O31    -3.9883   -1.5209   -4.3651 O.2      1 ZINC000084153880   -0.5100
32     C32    -2.8102   -3.3724   -1.0224 C.3      1 ZINC000084153880   -0.0300
33     C33    -4.1262   -4.1326   -0.9607 C.2      1 ZINC000084153880   -0.1300
34     C34    -4.3099   -5.3372   -1.3966 C.2      1 ZINC000084153880   -0.1200
35     C35    -3.1846   -6.1694   -1.9307 C.3      1 ZINC000084153880    0.1400
36     H36    -3.4565   -6.5224   -2.9254 H        1 ZINC000084153880    0.0700
37     O37    -3.0142   -7.3037   -1.0785 O.3      1 ZINC000084153880   -0.5500
38     C38    -1.8643   -5.4397   -2.0240 C.3      1 ZINC000084153880   -0.1200
39     C39    -1.6737   -4.3612   -0.9629 C.3      1 ZINC000084153880   -0.0600
40     H40    -1.6908   -4.8322    0.0199 H        1 ZINC000084153880    0.1100
41     C41    -5.0582   -3.2248   -0.1946 C.3      1 ZINC000084153880    0.2800
42     H42    -5.8848   -2.9166   -0.8349 H        1 ZINC000084153880    0.1200
43     O43    -5.5709   -3.9165    0.9745 O.3      1 ZINC000084153880   -0.3600
44     C44    -6.5692   -3.3211    1.6459 C.2      1 ZINC000084153880    0.4600
45     C45    -7.1522   -3.9796    2.8696 C.3      1 ZINC000084153880   -0.1500
46     O46    -7.0003   -2.2571    1.2691 O.2      1 ZINC000084153880   -0.5000
47     O47    -4.2943   -2.0701    0.2104 O.3      1 ZINC000084153880   -0.3200
48     C48    -2.9040   -2.4850    0.2369 C.3      1 ZINC000084153880    0.2500
49     H49    -2.2394   -1.6247    0.1574 H        1 ZINC000084153880    0.1300
50     O50    -2.6144   -3.2519    1.4354 O.3      1 ZINC000084153880   -0.3500
51     C51    -2.6808   -2.6000    2.6069 C.2      1 ZINC000084153880    0.4600
52     C52    -2.3931   -3.3307    3.8931 C.3      1 ZINC000084153880   -0.1500
53     O53    -2.9714   -1.4275    2.6302 O.2      1 ZINC000084153880   -0.4900
54     H54     3.2553   -2.8900    3.4995 H        1 ZINC000084153880    0.1000
55     H55     3.9315   -1.5456    2.3884 H        1 ZINC000084153880    0.1000
56     H56     2.0799   -1.8607    0.8803 H        1 ZINC000084153880    0.1100
57     H57     0.8438   -3.9435    4.1298 H        1 ZINC000084153880    0.0600
58     H58     0.8187   -5.3510    3.0404 H        1 ZINC000084153880    0.0700
59     H59     2.3630   -4.5594    3.4363 H        1 ZINC000084153880    0.0700
60     H60    -0.7370   -4.2591    1.5613 H        1 ZINC000084153880    0.1300
61     H61    -0.8516   -2.0444    0.1293 H        1 ZINC000084153880    0.0700
62     H62     0.8982   -2.2349   -0.1356 H        1 ZINC000084153880    0.0900
63     H63     0.7720   -5.3403   -0.3109 H        1 ZINC000084153880    0.0700
64     H64     0.5737   -5.4186   -2.0780 H        1 ZINC000084153880    0.0600
65     H65     1.7408   -4.2807   -1.3630 H        1 ZINC000084153880    0.0600
66     H66     1.8268   -2.9305   -2.7195 H        1 ZINC000084153880    0.0700
67     H67     1.0289   -1.5285   -3.4717 H        1 ZINC000084153880    0.0600
68     H68     1.2540   -1.5834   -1.7069 H        1 ZINC000084153880    0.0600
69     H69    -0.7803    1.1967   -5.1523 H        1 ZINC000084153880    0.1100
70     H70    -2.4462    0.6869   -5.5168 H        1 ZINC000084153880    0.1100
71     H71    -3.3160    2.4435   -3.9980 H        1 ZINC000084153880    0.0700
72     H72    -1.6500    2.9533   -3.6335 H        1 ZINC000084153880    0.0700
73     H73    -1.2873    3.4807   -6.0291 H        1 ZINC000084153880    0.0600
74     H74    -2.9533    2.9709   -6.3936 H        1 ZINC000084153880    0.0600
75     H75    -3.8231    4.7274   -4.8748 H        1 ZINC000084153880    0.0600
76     H76    -2.1571    5.2372   -4.5104 H        1 ZINC000084153880    0.0600
77     H77    -1.7944    5.7646   -6.9060 H        1 ZINC000084153880    0.0600
78     H78    -3.4604    5.2549   -7.2704 H        1 ZINC000084153880    0.0600
79     H79    -4.3302    7.0114   -5.7516 H        1 ZINC000084153880    0.0600
80     H80    -2.6642    7.5212   -5.3872 H        1 ZINC000084153880    0.0600
81     H81    -2.3015    8.0486   -7.7828 H        1 ZINC000084153880    0.0600
82     H82    -3.9675    7.5388   -8.1472 H        1 ZINC000084153880    0.0600
83     H83    -4.8372    9.2953   -6.6285 H        1 ZINC000084153880    0.0600
84     H84    -3.1712    9.8051   -6.2640 H        1 ZINC000084153880    0.0600
85     H85    -2.8085   10.3326   -8.6596 H        1 ZINC000084153880    0.0500
86     H86    -4.4745    9.8228   -9.0241 H        1 ZINC000084153880    0.0500
87     H87    -4.1843   11.2523   -8.0041 H        1 ZINC000084153880    0.0500
88     H88    -4.9886    0.9788   -3.3527 H        1 ZINC000084153880    0.1100
89     H89    -6.1113   -0.1605   -4.1336 H        1 ZINC000084153880    0.1000
90     H90    -6.0049   -0.0919   -2.3581 H        1 ZINC000084153880    0.1000
91     H91    -5.3053   -5.7556   -1.3742 H        1 ZINC000084153880    0.1300
92     H92    -3.7953   -7.8705   -1.0172 H        1 ZINC000084153880    0.3800
93     H93    -1.0582   -6.1671   -1.9283 H        1 ZINC000084153880    0.1000
94     H94    -1.7933   -4.9752   -3.0076 H        1 ZINC000084153880    0.0800
95     H95    -6.6060   -3.6514    3.7539 H        1 ZINC000084153880    0.1000
96     H96    -8.2016   -3.7015    2.9667 H        1 ZINC000084153880    0.1000
97     H97    -7.0707   -5.0623    2.7733 H        1 ZINC000084153880    0.0900
98     H98    -1.3297   -3.2589    4.1217 H        1 ZINC000084153880    0.1100
99     H99    -2.9697   -2.8826    4.7024 H        1 ZINC000084153880    0.1000
100    H100   -2.6717   -4.3790    3.7857 H        1 ZINC000084153880    0.0900
@<TRIPOS>BOND
1     1     2     2
2     1     54    1
3     1     55    1
4     2     3     1
5     2     56    1
6     3     4     1
7     3     5     2
8     4     57    1
9     4     58    1
10    4     59    1
11    5     6     1
12    5     60    1
13    6     7     1
14    6     61    1
15    6     62    1
16    7     39    1
17    7     8     1
18    7     9     1
19    8     63    1
20    8     64    1
21    8     65    1
22    9     10    1
23    9     11    1
24    9     12    1
25    11    66    1
26    11    67    1
27    11    68    1
28    12    13    1
29    12    14    1
30    12    26    1
31    14    15    1
32    15    16    2
33    15    17    1
34    17    18    1
35    17    69    1
36    17    70    1
37    18    19    1
38    18    71    1
39    18    72    1
40    19    20    1
41    19    73    1
42    19    74    1
43    20    21    1
44    20    75    1
45    20    76    1
46    21    22    1
47    21    77    1
48    21    78    1
49    22    23    1
50    22    79    1
51    22    80    1
52    23    24    1
53    23    81    1
54    23    82    1
55    24    25    1
56    24    83    1
57    24    84    1
58    25    85    1
59    25    86    1
60    25    87    1
61    26    27    1
62    26    28    1
63    26    32    1
64    28    29    1
65    29    30    1
66    29    31    2
67    30    88    1
68    30    89    1
69    30    90    1
70    32    39    1
71    32    48    1
72    32    33    1
73    33    34    2
74    33    41    1
75    34    35    1
76    34    91    1
77    35    36    1
78    35    37    1
79    35    38    1
80    37    92    1
81    38    39    1
82    38    93    1
83    38    94    1
84    39    40    1
85    41    42    1
86    41    43    1
87    41    47    1
88    43    44    1
89    44    45    1
90    44    46    2
91    45    95    1
92    45    96    1
93    45    97    1
94    47    48    1
95    48    49    1
96    48    50    1
97    50    51    1
98    51    52    1
99    51    53    2
100   52    98    1
101   52    99    1
102   52    100   1
@<TRIPOS>SUBSTRUCTURE
1   ZINC000084153880 1     RESIDUE    1   A     ZIN   1
