@<TRIPOS>MOLECULE
ZINC000014658276
52    54    1     0     0
SMALL
USER_CHARGES
@<TRIPOS>ATOM
1      C1     -0.0157    1.3058    0.0092 C.2      1 ZINC000014658276   -0.1900
2      C2      0.0021   -0.0041    0.0020 C.2      1 ZINC000014658276   -0.1300
3      C3      1.3172   -0.7397   -0.0145 C.3      1 ZINC000014658276   -0.0700
4      C4      1.3696   -1.7171    1.1615 C.3      1 ZINC000014658276   -0.0100
5      C5      0.2542   -2.7415    1.1227 C.2      1 ZINC000014658276   -0.1700
6      C6     -0.0933   -3.4083    2.2259 C.2      1 ZINC000014658276    0.0100
7      O7     -1.0896   -4.3325    2.1704 O.3      1 ZINC000014658276   -0.3100
8      C8     -1.7162   -4.5355    0.9023 C.3      1 ZINC000014658276    0.0200
9      C9      0.5946   -3.1508    3.5027 C.2      1 ZINC000014658276    0.4200
10     O10     0.2412   -3.6922    4.5292 O.2      1 ZINC000014658276   -0.4300
11     C11     1.7659   -2.1797    3.4841 C.3      1 ZINC000014658276   -0.1600
12     H12     2.0481   -1.8374    4.4797 H        1 ZINC000014658276    0.1200
13     C13     2.9307   -2.8535    2.7274 C.3      1 ZINC000014658276   -0.0300
14     H14     2.9112   -3.9306    2.8936 H        1 ZINC000014658276    0.0900
15     C15     4.2465   -2.2831    3.1902 C.ar     1 ZINC000014658276   -0.0700
16     C16     4.4876   -0.9268    3.0781 C.ar     1 ZINC000014658276   -0.1100
17     C17     5.6937   -0.3986    3.5009 C.ar     1 ZINC000014658276   -0.1700
18     C18     6.6631   -1.2292    4.0386 C.ar     1 ZINC000014658276    0.1000
19     O19     7.8496   -0.7113    4.4552 O.3      1 ZINC000014658276   -0.3100
20     C20     8.0290    0.6988    4.3088 C.3      1 ZINC000014658276    0.0300
21     C21     6.4201   -2.5951    4.1518 C.ar     1 ZINC000014658276    0.1000
22     O22     7.3686   -3.4146    4.6794 O.3      1 ZINC000014658276   -0.3100
23     C23     7.0500   -4.8050    4.7648 C.3      1 ZINC000014658276    0.0200
24     C24     5.2079   -3.1170    3.7312 C.ar     1 ZINC000014658276   -0.1600
25     C25     2.6944   -2.5197    1.2212 C.3      1 ZINC000014658276   -0.0800
26     H26     3.5164   -1.9160    0.8367 H        1 ZINC000014658276    0.0900
27     C27     2.5634   -3.8098    0.4092 C.3      1 ZINC000014658276   -0.1500
28     C28     1.3246   -1.0061    2.5394 C.3      1 ZINC000014658276    0.1200
29     H29     2.0274   -0.1747    2.5927 H        1 ZINC000014658276    0.0900
30     O30    -0.0029   -0.5731    2.8436 O.3      1 ZINC000014658276   -0.5400
31     H31     0.9122    1.8585    0.0033 H        1 ZINC000014658276    0.0900
32     H32    -0.9582    1.8330    0.0166 H        1 ZINC000014658276    0.0900
33     H33    -0.9258   -0.5567    0.0079 H        1 ZINC000014658276    0.1100
34     H34     1.4134   -1.2911   -0.9498 H        1 ZINC000014658276    0.0800
35     H35     2.1349   -0.0241    0.0711 H        1 ZINC000014658276    0.0800
36     H36    -0.2644   -2.9338    0.1951 H        1 ZINC000014658276    0.1300
37     H37    -2.4908   -5.2965    0.9974 H        1 ZINC000014658276    0.1000
38     H38    -2.1645   -3.6010    0.5648 H        1 ZINC000014658276    0.0600
39     H39    -0.9714   -4.8639    0.1774 H        1 ZINC000014658276    0.0500
40     H40     3.7326   -0.2781    2.6591 H        1 ZINC000014658276    0.1300
41     H41     5.8799    0.6615    3.4116 H        1 ZINC000014658276    0.1400
42     H42     7.9454    0.9684    3.2560 H        1 ZINC000014658276    0.0600
43     H43     7.2635    1.2238    4.8802 H        1 ZINC000014658276    0.0600
44     H44     9.0151    0.9799    4.6786 H        1 ZINC000014658276    0.1000
45     H45     7.8901   -5.3440    5.2027 H        1 ZINC000014658276    0.1000
46     H46     6.1673   -4.9377    5.3904 H        1 ZINC000014658276    0.0600
47     H47     6.8495   -5.1938    3.7664 H        1 ZINC000014658276    0.0600
48     H48     5.0168   -4.1764    3.8179 H        1 ZINC000014658276    0.1400
49     H49     1.7360   -4.4023    0.7995 H        1 ZINC000014658276    0.0600
50     H50     2.3732   -3.5639   -0.6355 H        1 ZINC000014658276    0.0600
51     H51     3.4878   -4.3824    0.4852 H        1 ZINC000014658276    0.0600
52     H52    -0.1082   -0.2283    3.7408 H        1 ZINC000014658276    0.3800
@<TRIPOS>BOND
1     1     2     2
2     1     31    1
3     1     32    1
4     2     3     1
5     2     33    1
6     3     4     1
7     3     34    1
8     3     35    1
9     4     25    1
10    4     28    1
11    4     5     1
12    5     6     2
13    5     36    1
14    6     7     1
15    6     9     1
16    7     8     1
17    8     37    1
18    8     38    1
19    8     39    1
20    9     10    2
21    9     11    1
22    11    12    1
23    11    13    1
24    11    28    1
25    13    14    1
26    13    15    1
27    13    25    1
28    15    24    ar
29    15    16    ar
30    16    17    ar
31    16    40    1
32    17    18    ar
33    17    41    1
34    18    19    1
35    18    21    ar
36    19    20    1
37    20    42    1
38    20    43    1
39    20    44    1
40    21    22    1
41    21    24    ar
42    22    23    1
43    23    45    1
44    23    46    1
45    23    47    1
46    24    48    1
47    25    26    1
48    25    27    1
49    27    49    1
50    27    50    1
51    27    51    1
52    28    29    1
53    28    30    1
54    30    52    1
@<TRIPOS>SUBSTRUCTURE
1   ZINC000014658276 1     RESIDUE    1   A     ZIN   1
