@<TRIPOS>MOLECULE
ZINC000084154270
102   106   1     0     0
SMALL
USER_CHARGES
@<TRIPOS>ATOM
1      C1     -2.8826    1.0179    0.2997 C.3      1 ZINC000084154270    0.0400
2      O2     -2.8743   -0.4317    0.2153 O.3      1 ZINC000084154270   -0.3600
3      C3     -1.9312   -0.9917   -0.5584 C.2      1 ZINC000084154270    0.4700
4      O4     -1.1388   -0.2937   -1.1458 O.2      1 ZINC000084154270   -0.4900
5      C5     -1.8607   -2.4886   -0.6943 C.3      1 ZINC000084154270   -0.0300
6      C6     -1.6690   -3.1150    0.6841 C.3      1 ZINC000084154270   -0.1100
7      C7     -0.3316   -2.6897    1.2836 C.3      1 ZINC000084154270   -0.1100
8      C8      0.8263   -3.0826    0.3724 C.3      1 ZINC000084154270   -0.1000
9      C9      2.1268   -2.5029    0.9527 C.3      1 ZINC000084154270   -0.1500
10     C10     0.9587   -4.6056    0.3133 C.3      1 ZINC000084154270   -0.1400
11     C11     0.6391   -2.5206   -1.0373 C.3      1 ZINC000084154270    0.1200
12     H12     0.7604   -1.4365   -1.0165 H        1 ZINC000084154270    0.0700
13     O13     1.6699   -3.0736   -1.8730 O.3      1 ZINC000084154270   -0.5600
14     C14    -0.7138   -2.8878   -1.6202 C.3      1 ZINC000084154270   -0.0200
15     H15    -0.7565   -3.9766   -1.7683 H        1 ZINC000084154270    0.0900
16     C16    -0.9514   -2.2135   -2.9616 C.2      1 ZINC000084154270   -0.1000
17     C17    -0.0116   -1.4823   -3.4770 C.2      1 ZINC000084154270   -0.1200
18     C18    -0.1161   -0.7885   -4.8104 C.3      1 ZINC000084154270   -0.0800
19     C19    -1.1777   -1.5040   -5.6495 C.3      1 ZINC000084154270   -0.0600
20     H20    -0.8215   -2.5387   -5.8185 H        1 ZINC000084154270    0.0700
21     C21    -1.2914   -0.8617   -7.0319 C.3      1 ZINC000084154270   -0.0400
22     C22    -1.4130    0.6551   -6.9236 C.3      1 ZINC000084154270   -0.1600
23     C23    -0.0025   -1.1781   -7.8146 C.3      1 ZINC000084154270   -0.1100
24     C24    -0.0909   -0.5490   -9.2023 C.3      1 ZINC000084154270   -0.1400
25     C25    -1.2487   -1.1469   -9.9904 C.3      1 ZINC000084154270    0.1100
26     H26    -1.0192   -2.1952  -10.2154 H        1 ZINC000084154270    0.0900
27     O27    -1.3846   -0.4306  -11.2528 O.3      1 ZINC000084154270   -0.3200
28     C28    -0.6897   -0.9032  -12.2995 C.2      1 ZINC000084154270    0.4600
29     C29    -0.7805   -0.2147  -13.6369 C.3      1 ZINC000084154270   -0.1500
30     O30     0.0087   -1.8805  -12.1693 O.2      1 ZINC000084154270   -0.5200
31     C31    -2.5798   -1.0851   -9.2434 C.3      1 ZINC000084154270   -0.0300
32     C32    -3.2220    0.2894   -9.4423 C.3      1 ZINC000084154270    0.0800
33     O33    -3.5549    0.4698  -10.8441 O.3      1 ZINC000084154270   -0.3100
34     C34    -4.1301    1.6325  -11.1891 C.2      1 ZINC000084154270    0.4500
35     C35    -4.5039    1.8912  -12.6259 C.3      1 ZINC000084154270   -0.1500
36     O36    -4.3482    2.4717  -10.3476 O.2      1 ZINC000084154270   -0.5200
37     C37    -3.5131   -2.1131   -9.9347 C.3      1 ZINC000084154270    0.0700
38     O38    -3.6810   -1.7520  -11.3311 O.3      1 ZINC000084154270   -0.3200
39     C39    -4.4658   -2.5464  -12.0758 C.2      1 ZINC000084154270    0.4500
40     C40    -4.6869   -2.2345  -13.5335 C.3      1 ZINC000084154270   -0.1500
41     O41    -4.9951   -3.5115  -11.5775 O.2      1 ZINC000084154270   -0.5200
42     C42    -2.4565   -1.4826   -7.7903 C.3      1 ZINC000084154270   -0.0600
43     H43    -2.2716   -2.5874   -7.7733 H        1 ZINC000084154270    0.0800
44     C44    -3.7527   -1.2706   -7.0075 C.3      1 ZINC000084154270   -0.1200
45     C45    -3.6305   -2.0973   -5.7152 C.3      1 ZINC000084154270   -0.1100
46     C46    -2.4771   -1.5764   -4.8603 C.3      1 ZINC000084154270   -0.0200
47     C47    -2.8574   -0.1730   -4.3565 C.3      1 ZINC000084154270   -0.1600
48     C48    -2.2798   -2.4629   -3.6285 C.3      1 ZINC000084154270    0.0000
49     C49    -2.2496   -3.9293   -4.0889 C.3      1 ZINC000084154270   -0.1500
50     C50    -3.4358   -2.3226   -2.6504 C.3      1 ZINC000084154270   -0.1100
51     C51    -3.1632   -3.0051   -1.3111 C.3      1 ZINC000084154270   -0.1100
52     H52    -1.9304    1.3639    0.7018 H        1 ZINC000084154270    0.0600
53     H53    -3.0316    1.4388   -0.6946 H        1 ZINC000084154270    0.0600
54     H54    -3.6920    1.3390    0.9552 H        1 ZINC000084154270    0.1000
55     H55    -2.4785   -2.7748    1.3404 H        1 ZINC000084154270    0.0800
56     H56    -1.7254   -4.1989    0.6019 H        1 ZINC000084154270    0.0800
57     H57    -0.3107   -1.6140    1.4563 H        1 ZINC000084154270    0.0600
58     H58    -0.2019   -3.1886    2.2524 H        1 ZINC000084154270    0.0700
59     H59     2.2893   -2.9047    1.9528 H        1 ZINC000084154270    0.0600
60     H60     2.9645   -2.7760    0.3109 H        1 ZINC000084154270    0.0600
61     H61     2.0487   -1.4170    1.0057 H        1 ZINC000084154270    0.0500
62     H62     0.0361   -5.0357   -0.0765 H        1 ZINC000084154270    0.0600
63     H63     1.7889   -4.8730   -0.3404 H        1 ZINC000084154270    0.0600
64     H64     1.1455   -4.9931    1.3148 H        1 ZINC000084154270    0.0500
65     H65     2.5675   -2.8616   -1.5826 H        1 ZINC000084154270    0.3700
66     H66     0.9058   -1.3369   -2.9309 H        1 ZINC000084154270    0.1100
67     H67    -0.3433    0.2554   -4.6491 H        1 ZINC000084154270    0.0800
68     H68     0.8548   -0.8740   -5.3103 H        1 ZINC000084154270    0.0700
69     H69    -0.6448    1.0340   -6.2494 H        1 ZINC000084154270    0.0700
70     H70    -1.2833    1.1013   -7.9096 H        1 ZINC000084154270    0.0600
71     H71    -2.3977    0.9138   -6.5344 H        1 ZINC000084154270    0.0700
72     H72     0.8473   -0.7705   -7.2755 H        1 ZINC000084154270    0.0800
73     H73     0.0941   -2.2593   -7.9048 H        1 ZINC000084154270    0.0700
74     H74    -0.1795    0.5310   -9.1484 H        1 ZINC000084154270    0.0800
75     H75     0.8449   -0.7689   -9.7393 H        1 ZINC000084154270    0.0700
76     H76    -0.4403    0.8162  -13.5388 H        1 ZINC000084154270    0.1000
77     H77    -0.1522   -0.7375  -14.3581 H        1 ZINC000084154270    0.1000
78     H78    -1.8146   -0.2248  -13.9813 H        1 ZINC000084154270    0.1000
79     H79    -4.1292    0.3569   -8.8418 H        1 ZINC000084154270    0.0700
80     H80    -2.5224    1.0656   -9.1322 H        1 ZINC000084154270    0.0800
81     H81    -5.2167    1.1362  -12.9575 H        1 ZINC000084154270    0.1000
82     H82    -4.9553    2.8796  -12.7116 H        1 ZINC000084154270    0.1000
83     H83    -3.6099    1.8449  -13.2478 H        1 ZINC000084154270    0.1000
84     H84    -3.0717   -3.1075   -9.8671 H        1 ZINC000084154270    0.0700
85     H85    -4.4843   -2.1123   -9.4399 H        1 ZINC000084154270    0.0800
86     H86    -3.9247   -2.7339  -14.1316 H        1 ZINC000084154270    0.1000
87     H87    -5.6735   -2.5866  -13.8348 H        1 ZINC000084154270    0.1000
88     H88    -4.6225   -1.1575  -13.6885 H        1 ZINC000084154270    0.0900
89     H89    -3.9303   -0.2307   -6.7758 H        1 ZINC000084154270    0.0800
90     H90    -4.6003   -1.6619   -7.5765 H        1 ZINC000084154270    0.0600
91     H91    -4.5649   -2.0196   -5.1570 H        1 ZINC000084154270    0.0700
92     H92    -3.4730   -3.1294   -6.0266 H        1 ZINC000084154270    0.0700
93     H93    -3.7188   -0.2464   -3.6926 H        1 ZINC000084154270    0.0500
94     H94    -2.0163    0.2586   -3.8140 H        1 ZINC000084154270    0.0700
95     H95    -3.1067    0.4629   -5.2060 H        1 ZINC000084154270    0.0600
96     H96    -1.4266   -4.0735   -4.7888 H        1 ZINC000084154270    0.0600
97     H97    -2.1096   -4.5786   -3.2247 H        1 ZINC000084154270    0.0500
98     H98    -3.1913   -4.1755   -4.5796 H        1 ZINC000084154270    0.0600
99     H99    -3.7197   -1.2930   -2.4519 H        1 ZINC000084154270    0.0700
100    H100   -4.3232   -2.8076   -3.0957 H        1 ZINC000084154270    0.0700
101    H101   -3.0997   -4.0840   -1.4364 H        1 ZINC000084154270    0.0800
102    H102   -3.9876   -2.7802   -0.6255 H        1 ZINC000084154270    0.0800
@<TRIPOS>BOND
1     1     2     1
2     1     52    1
3     1     53    1
4     1     54    1
5     2     3     1
6     3     4     2
7     3     5     1
8     5     14    1
9     5     51    1
10    5     6     1
11    6     7     1
12    6     55    1
13    6     56    1
14    7     8     1
15    7     57    1
16    7     58    1
17    8     9     1
18    8     10    1
19    8     11    1
20    9     59    1
21    9     60    1
22    9     61    1
23    10    62    1
24    10    63    1
25    10    64    1
26    11    12    1
27    11    13    1
28    11    14    1
29    13    65    1
30    14    15    1
31    14    16    1
32    16    48    1
33    16    17    2
34    17    18    1
35    17    66    1
36    18    19    1
37    18    67    1
38    18    68    1
39    19    20    1
40    19    46    1
41    19    21    1
42    21    42    1
43    21    22    1
44    21    23    1
45    22    69    1
46    22    70    1
47    22    71    1
48    23    24    1
49    23    72    1
50    23    73    1
51    24    25    1
52    24    74    1
53    24    75    1
54    25    26    1
55    25    27    1
56    25    31    1
57    27    28    1
58    28    29    1
59    28    30    2
60    29    76    1
61    29    77    1
62    29    78    1
63    31    32    1
64    31    37    1
65    31    42    1
66    32    33    1
67    32    79    1
68    32    80    1
69    33    34    1
70    34    35    1
71    34    36    2
72    35    81    1
73    35    82    1
74    35    83    1
75    37    38    1
76    37    84    1
77    37    85    1
78    38    39    1
79    39    40    1
80    39    41    2
81    40    86    1
82    40    87    1
83    40    88    1
84    42    43    1
85    42    44    1
86    44    45    1
87    44    89    1
88    44    90    1
89    45    46    1
90    45    91    1
91    45    92    1
92    46    47    1
93    46    48    1
94    47    93    1
95    47    94    1
96    47    95    1
97    48    49    1
98    48    50    1
99    49    96    1
100   49    97    1
101   49    98    1
102   50    51    1
103   50    99    1
104   50    100   1
105   51    101   1
106   51    102   1
@<TRIPOS>SUBSTRUCTURE
1   ZINC000084154270 1     RESIDUE    1   A     ZIN   1
