@<TRIPOS>MOLECULE
ZINC000000002050
  22   23    0    0    0
SMALL
USER_CHARGES
NO_NAME
@<TRIPOS>ATOM
    1 C1       -0.0157     1.3058     0.0092 C.2    1 <0>      -0.1900
    2 C2        0.0021    -0.0041     0.0020 C.2    1 <0>      -0.1500
    3 C3        1.3172    -0.7397    -0.0145 C.3    1 <0>      -0.0500
    4 C4        1.3689    -1.7024     1.1438 C.ar   1 <0>      -0.0700
    5 C5        1.8728    -1.2887     2.3624 C.ar   1 <0>      -0.1000
    6 C6        1.9223    -2.1683     3.4282 C.ar   1 <0>      -0.1000
    7 C7        1.4668    -3.4675     3.2764 C.ar   1 <0>       0.0300
    8 O8        1.4064    -4.5136     4.1512 O.3    1 <0>      -0.3100
    9 C9        0.4823    -5.4505     3.5668 C.3    1 <0>       0.2100
   10 O10       0.5804    -5.1917     2.1538 O.3    1 <0>      -0.3100
   11 C11       0.9589    -3.8845     2.0481 C.ar   1 <0>       0.0300
   12 C12       0.9067    -2.9962     0.9867 C.ar   1 <0>      -0.1000
   13 H13       0.9122     1.8585     0.0033 H      1 <0>       0.1000
   14 H14      -0.9582     1.8330     0.0166 H      1 <0>       0.1000
   15 H15      -0.9258    -0.5567     0.0079 H      1 <0>       0.1100
   16 H16       1.4134    -1.2911    -0.9498 H      1 <0>       0.0900
   17 H17       2.1349    -0.0241     0.0711 H      1 <0>       0.0800
   18 H18       2.2291    -0.2762     2.4824 H      1 <0>       0.1400
   19 H19       2.3165    -1.8422     4.3793 H      1 <0>       0.1400
   20 H20       0.7823    -6.4743     3.7903 H      1 <0>       0.1300
   21 H21      -0.5308    -5.2611     3.9214 H      1 <0>       0.0900
   22 H22       0.5079    -3.3151     0.0350 H      1 <0>       0.1400
@<TRIPOS>BOND
   1    1    2 2
   2    1   13 1
   3    1   14 1
   4    2    3 1
   5    2   15 1
   6    3    4 1
   7    3   16 1
   8    3   17 1
   9    4   12 ar
  10    4    5 ar
  11    5    6 ar
  12    5   18 1
  13    6    7 ar
  14    6   19 1
  15    7   11 ar
  16    7    8 1
  17    8    9 1
  18    9   10 1
  19    9   20 1
  20    9   21 1
  21   10   11 1
  22   11   12 ar
  23   12   22 1
