@<TRIPOS>MOLECULE
ZINC000084154261
102   106   1     0     0
SMALL
USER_CHARGES
@<TRIPOS>ATOM
1      C1     -3.1824    1.3030    0.3586 C.3      1 ZINC000084154261    0.0400
2      O2     -3.1396   -0.1482    0.3363 O.3      1 ZINC000084154261   -0.3600
3      C3     -2.1579   -0.7178   -0.3804 C.2      1 ZINC000084154261    0.4700
4      O4     -1.3609   -0.0268   -0.9695 O.2      1 ZINC000084154261   -0.4800
5      C5     -2.0502   -2.2153   -0.4500 C.3      1 ZINC000084154261   -0.0300
6      C6     -1.9531   -2.7827    0.9676 C.3      1 ZINC000084154261   -0.1100
7      C7     -0.6008   -2.4636    1.5915 C.3      1 ZINC000084154261   -0.1100
8      C8      0.5397   -3.0069    0.7435 C.3      1 ZINC000084154261   -0.1200
9      H9      1.4912   -2.6774    1.1856 H        1 ZINC000084154261    0.0700
10     C10     0.5238   -4.5333    0.7266 C.3      1 ZINC000084154261   -0.1400
11     C11     0.4764   -2.4590   -0.6902 C.3      1 ZINC000084154261    0.1600
12     C12     0.9082   -0.9922   -0.6495 C.3      1 ZINC000084154261   -0.1800
13     O13     1.4608   -3.1965   -1.4469 O.3      1 ZINC000084154261   -0.5600
14     C14    -0.8841   -2.6891   -1.3026 C.3      1 ZINC000084154261    0.0000
15     H15    -1.0024   -3.8093   -1.3614 H        1 ZINC000084154261    0.0800
16     C16    -1.0410   -2.2238   -2.7338 C.2      1 ZINC000084154261   -0.0900
17     C17    -0.0212   -1.7693   -3.4011 C.2      1 ZINC000084154261   -0.1400
18     C18    -0.0706   -1.2340   -4.8083 C.3      1 ZINC000084154261   -0.0800
19     C19    -1.2803   -1.8181   -5.5347 C.3      1 ZINC000084154261   -0.0600
20     H20    -1.1045   -2.9104   -5.6269 H        1 ZINC000084154261    0.0700
21     C21    -1.3726   -1.2930   -6.9679 C.3      1 ZINC000084154261   -0.0300
22     C22    -1.2696    0.2273   -7.0110 C.3      1 ZINC000084154261   -0.1600
23     C23    -0.1819   -1.8683   -7.7567 C.3      1 ZINC000084154261   -0.1100
24     C24    -0.2849   -1.4454   -9.2193 C.3      1 ZINC000084154261   -0.1400
25     C25    -1.5504   -2.0166   -9.8455 C.3      1 ZINC000084154261    0.1100
26     H26    -1.4857   -3.1103   -9.8514 H        1 ZINC000084154261    0.0900
27     O27    -1.6575   -1.5562  -11.2221 O.3      1 ZINC000084154261   -0.3200
28     C28    -1.0879   -2.3211  -12.1666 C.2      1 ZINC000084154261    0.4600
29     C29    -1.1582   -1.9082  -13.6142 C.3      1 ZINC000084154261   -0.1500
30     O30    -0.5189   -3.3408  -11.8562 O.2      1 ZINC000084154261   -0.5200
31     C31    -2.8085   -1.6026   -9.0813 C.3      1 ZINC000084154261   -0.0300
32     C32    -3.1956   -0.1707   -9.4483 C.3      1 ZINC000084154261    0.0800
33     O33    -3.5671   -0.1142  -10.8508 O.3      1 ZINC000084154261   -0.3100
34     C34    -3.9363    1.0818  -11.3357 C.2      1 ZINC000084154261    0.4500
35     C35    -4.3354    1.2177  -12.7825 C.3      1 ZINC000084154261   -0.1500
36     O36    -3.9485    2.0494  -10.6122 O.2      1 ZINC000084154261   -0.5200
37     C37    -3.9468   -2.5231   -9.5882 C.3      1 ZINC000084154261    0.0700
38     O38    -4.1199   -2.3364  -11.0178 O.3      1 ZINC000084154261   -0.3200
39     C39    -5.0743   -3.0662  -11.6165 C.2      1 ZINC000084154261    0.4500
40     C40    -5.3118   -2.9260  -13.0980 C.3      1 ZINC000084154261   -0.1500
41     O41    -5.7428   -3.8355  -10.9676 O.2      1 ZINC000084154261   -0.5200
42     C42    -2.6617   -1.8109   -7.5919 C.3      1 ZINC000084154261   -0.0600
43     H43    -2.6502   -2.9197   -7.4310 H        1 ZINC000084154261    0.0800
44     C44    -3.8574   -1.2946   -6.7928 C.3      1 ZINC000084154261   -0.1200
45     C45    -3.8052   -1.9640   -5.4102 C.3      1 ZINC000084154261   -0.1100
46     C46    -2.5182   -1.5971   -4.6804 C.3      1 ZINC000084154261   -0.0200
47     C47    -2.6150   -0.1184   -4.2628 C.3      1 ZINC000084154261   -0.1600
48     C48    -2.3886   -2.4133   -3.3892 C.3      1 ZINC000084154261    0.0000
49     C49    -2.4657   -3.9050   -3.7580 C.3      1 ZINC000084154261   -0.1500
50     C50    -3.5525   -2.1307   -2.4550 C.3      1 ZINC000084154261   -0.1200
51     C51    -3.3472   -2.7553   -1.0784 C.3      1 ZINC000084154261   -0.1100
52     H52    -2.2527    1.6876    0.7779 H        1 ZINC000084154261    0.0600
53     H53    -3.3057    1.6786   -0.6572 H        1 ZINC000084154261    0.0600
54     H54    -4.0212    1.6323    0.9720 H        1 ZINC000084154261    0.1000
55     H55    -2.7460   -2.3328    1.5772 H        1 ZINC000084154261    0.0800
56     H56    -2.1182   -3.8599    0.9385 H        1 ZINC000084154261    0.0800
57     H57    -0.4894   -1.3889    1.7327 H        1 ZINC000084154261    0.0600
58     H58    -0.5523   -2.9307    2.5857 H        1 ZINC000084154261    0.0700
59     H59    -0.4209   -4.8823    0.3097 H        1 ZINC000084154261    0.0500
60     H60     1.3482   -4.8985    0.1141 H        1 ZINC000084154261    0.0700
61     H61     0.6328   -4.9091    1.7440 H        1 ZINC000084154261    0.0500
62     H62     1.9250   -0.9234   -0.2628 H        1 ZINC000084154261    0.0400
63     H63     0.8732   -0.5751   -1.6559 H        1 ZINC000084154261    0.0800
64     H64     0.2342   -0.4329   -0.0007 H        1 ZINC000084154261    0.0700
65     H65     2.3639   -3.1028   -1.1140 H        1 ZINC000084154261    0.3700
66     H66     0.9671   -1.8061   -2.9679 H        1 ZINC000084154261    0.1200
67     H67    -0.0817   -0.1517   -4.7744 H        1 ZINC000084154261    0.0800
68     H68     0.8445   -1.5542   -5.3230 H        1 ZINC000084154261    0.0600
69     H69    -0.4039    0.5494   -6.4322 H        1 ZINC000084154261    0.0600
70     H70    -1.1579    0.5548   -8.0446 H        1 ZINC000084154261    0.0600
71     H71    -2.1733    0.6649   -6.5868 H        1 ZINC000084154261    0.0700
72     H72     0.7438   -1.4845   -7.3287 H        1 ZINC000084154261    0.0800
73     H73    -0.1982   -2.9543   -7.6828 H        1 ZINC000084154261    0.0700
74     H74    -0.2610   -0.3648   -9.3208 H        1 ZINC000084154261    0.0800
75     H75     0.5857   -1.8473   -9.7588 H        1 ZINC000084154261    0.0700
76     H76    -0.2967   -1.2860  -13.8568 H        1 ZINC000084154261    0.1000
77     H77    -1.1543   -2.7964  -14.2460 H        1 ZINC000084154261    0.1000
78     H78    -2.0744   -1.3435  -13.7869 H        1 ZINC000084154261    0.0900
79     H79    -4.0399    0.1457   -8.8358 H        1 ZINC000084154261    0.0700
80     H80    -2.3487    0.4917   -9.2698 H        1 ZINC000084154261    0.0800
81     H81    -5.1926    0.5756  -12.9848 H        1 ZINC000084154261    0.1000
82     H82    -4.6008    2.2543  -12.9904 H        1 ZINC000084154261    0.1000
83     H83    -3.5014    0.9216  -13.4189 H        1 ZINC000084154261    0.1000
84     H84    -3.6904   -3.5631   -9.3860 H        1 ZINC000084154261    0.0700
85     H85    -4.8742   -2.2710   -9.0740 H        1 ZINC000084154261    0.0800
86     H86    -4.6856   -3.6382  -13.6354 H        1 ZINC000084154261    0.1000
87     H87    -6.3604   -3.1257  -13.3184 H        1 ZINC000084154261    0.1000
88     H88    -5.0612   -1.9127  -13.4119 H        1 ZINC000084154261    0.0900
89     H89    -3.8399   -0.2187   -6.6881 H        1 ZINC000084154261    0.0800
90     H90    -4.7919   -1.5905   -7.2749 H        1 ZINC000084154261    0.0600
91     H91    -4.6653   -1.6199   -4.8291 H        1 ZINC000084154261    0.0700
92     H92    -3.8936   -3.0365   -5.5672 H        1 ZINC000084154261    0.0700
93     H93    -3.4190    0.0022   -3.5367 H        1 ZINC000084154261    0.0500
94     H94    -1.6717    0.1955   -3.8158 H        1 ZINC000084154261    0.0700
95     H95    -2.8229    0.4941   -5.1401 H        1 ZINC000084154261    0.0600
96     H96    -1.6540   -4.1525   -4.4421 H        1 ZINC000084154261    0.0600
97     H97    -2.3757   -4.5077   -2.8543 H        1 ZINC000084154261    0.0500
98     H98    -3.4219   -4.1114   -4.2388 H        1 ZINC000084154261    0.0600
99     H99    -3.7738   -1.0757   -2.3481 H        1 ZINC000084154261    0.0700
100    H100   -4.4597   -2.5895   -2.8945 H        1 ZINC000084154261    0.0700
101    H101   -3.2844   -3.8376   -1.1485 H        1 ZINC000084154261    0.0800
102    H102   -4.1819   -2.4858   -0.4265 H        1 ZINC000084154261    0.0800
@<TRIPOS>BOND
1     1     2     1
2     1     52    1
3     1     53    1
4     1     54    1
5     2     3     1
6     3     4     2
7     3     5     1
8     5     14    1
9     5     51    1
10    5     6     1
11    6     7     1
12    6     55    1
13    6     56    1
14    7     8     1
15    7     57    1
16    7     58    1
17    8     9     1
18    8     10    1
19    8     11    1
20    10    59    1
21    10    60    1
22    10    61    1
23    11    12    1
24    11    13    1
25    11    14    1
26    12    62    1
27    12    63    1
28    12    64    1
29    13    65    1
30    14    15    1
31    14    16    1
32    16    48    1
33    16    17    2
34    17    18    1
35    17    66    1
36    18    19    1
37    18    67    1
38    18    68    1
39    19    20    1
40    19    46    1
41    19    21    1
42    21    42    1
43    21    22    1
44    21    23    1
45    22    69    1
46    22    70    1
47    22    71    1
48    23    24    1
49    23    72    1
50    23    73    1
51    24    25    1
52    24    74    1
53    24    75    1
54    25    26    1
55    25    27    1
56    25    31    1
57    27    28    1
58    28    29    1
59    28    30    2
60    29    76    1
61    29    77    1
62    29    78    1
63    31    32    1
64    31    37    1
65    31    42    1
66    32    33    1
67    32    79    1
68    32    80    1
69    33    34    1
70    34    35    1
71    34    36    2
72    35    81    1
73    35    82    1
74    35    83    1
75    37    38    1
76    37    84    1
77    37    85    1
78    38    39    1
79    39    40    1
80    39    41    2
81    40    86    1
82    40    87    1
83    40    88    1
84    42    43    1
85    42    44    1
86    44    45    1
87    44    89    1
88    44    90    1
89    45    46    1
90    45    91    1
91    45    92    1
92    46    47    1
93    46    48    1
94    47    93    1
95    47    94    1
96    47    95    1
97    48    49    1
98    48    50    1
99    49    96    1
100   49    97    1
101   49    98    1
102   50    51    1
103   50    99    1
104   50    100   1
105   51    101   1
106   51    102   1
@<TRIPOS>SUBSTRUCTURE
1   ZINC000084154261 1     RESIDUE    1   A     ZIN   1
